1,2,3,4,6,7,8-heptachlorodibenzofuran
     RDKit          3D

 21 23  0  0  0  0  0  0  0  0999 V2000
    1.4957   -1.6209    0.0290 C   0  0  0  0  0  0  0  0  0  0  0  0
    0.6392   -0.5029   -0.0141 C   0  0  0  0  0  0  0  0  0  0  0  0
   -0.7723   -0.2682    0.1395 C   0  0  0  0  0  0  0  0  0  0  0  0
   -0.9434    1.1037   -0.0297 C   0  0  0  0  0  0  0  0  0  0  0  0
   -2.1751    1.7657    0.0405 C   0  0  0  0  0  0  0  0  0  0  0  0
   -3.3149    0.9843    0.3004 C   0  0  0  0  0  0  0  0  0  0  0  0
   -3.2000   -0.4050    0.4795 C   0  0  0  0  0  0  0  0  0  0  0  0
   -1.9367   -1.0221    0.3988 C   0  0  0  0  0  0  0  0  0  0  0  0
   -1.6898   -2.7079    0.6019 Cl  0  0  0  0  0  0  0  0  0  0  0  0
   -4.6052   -1.3780    0.8012 Cl  0  0  0  0  0  0  0  0  0  0  0  0
   -4.8725    1.7560    0.3983 Cl  0  0  0  0  0  0  0  0  0  0  0  0
   -2.2293    3.4743   -0.1912 Cl  0  0  0  0  0  0  0  0  0  0  0  0
    0.2554    1.7006   -0.2716 O   0  0  0  0  0  0  0  0  0  0  0  0
    1.2164    0.7377   -0.2639 C   0  0  0  0  0  0  0  0  0  0  0  0
    2.5846    0.9485   -0.4741 C   0  0  0  0  0  0  0  0  0  0  0  0
    3.4224   -0.1778   -0.4274 C   0  0  0  0  0  0  0  0  0  0  0  0
    2.8764   -1.4465   -0.1778 C   0  0  0  0  0  0  0  0  0  0  0  0
    3.8529   -2.8761   -0.1070 Cl  0  0  0  0  0  0  0  0  0  0  0  0
    5.1324    0.0049   -0.6789 Cl  0  0  0  0  0  0  0  0  0  0  0  0
    3.1590    2.5470   -0.7736 Cl  0  0  0  0  0  0  0  0  0  0  0  0
    1.1047   -2.6172    0.2200 H   0  0  0  0  0  0  0  0  0  0  0  0
  1  2  2  0
  2  3  1  0
  3  4  2  0
  4  5  1  0
  5  6  2  0
  6  7  1  0
  7  8  2  0
  8  9  1  0
  7 10  1  0
  6 11  1  0
  5 12  1  0
  4 13  1  0
 13 14  1  0
 14 15  2  0
 15 16  1  0
 16 17  2  0
 17 18  1  0
 16 19  1  0
 15 20  1  0
 17  1  1  0
 14  2  1  0
  8  3  1  0
  1 21  1  0
M  END
>  <SMILES>  (1) 
c1c2c3c(c(c(c(c3Cl)Cl)Cl)Cl)oc2c(c(c1Cl)Cl)Cl

$$$$
