1,2,3-trimethylbenzene
     RDKit          3D

 21 21  0  0  0  0  0  0  0  0999 V2000
    2.5423    0.5017    0.0502 C   0  0  0  0  0  0  0  0  0  0  0  0
    1.2266   -0.2207   -0.0699 C   0  0  0  0  0  0  0  0  0  0  0  0
    1.2423   -1.5977   -0.3408 C   0  0  0  0  0  0  0  0  0  0  0  0
    0.0556   -2.3138   -0.4566 C   0  0  0  0  0  0  0  0  0  0  0  0
   -1.1638   -1.6643   -0.2962 C   0  0  0  0  0  0  0  0  0  0  0  0
   -1.2143   -0.2882   -0.0246 C   0  0  0  0  0  0  0  0  0  0  0  0
   -0.0114    0.4531    0.0600 C   0  0  0  0  0  0  0  0  0  0  0  0
   -0.0470    1.9335    0.3524 C   0  0  0  0  0  0  0  0  0  0  0  0
   -2.5625    0.3605    0.1449 C   0  0  0  0  0  0  0  0  0  0  0  0
    3.3829   -0.1993    0.0938 H   0  0  0  0  0  0  0  0  0  0  0  0
    2.5733    1.0950    0.9698 H   0  0  0  0  0  0  0  0  0  0  0  0
    2.6948    1.1545   -0.8149 H   0  0  0  0  0  0  0  0  0  0  0  0
    2.1867   -2.1239   -0.4607 H   0  0  0  0  0  0  0  0  0  0  0  0
    0.0812   -3.3797   -0.6657 H   0  0  0  0  0  0  0  0  0  0  0  0
   -2.0815   -2.2420   -0.3816 H   0  0  0  0  0  0  0  0  0  0  0  0
    0.8019    2.4560   -0.0988 H   0  0  0  0  0  0  0  0  0  0  0  0
   -0.9395    2.4078   -0.0665 H   0  0  0  0  0  0  0  0  0  0  0  0
   -0.0314    2.0985    1.4341 H   0  0  0  0  0  0  0  0  0  0  0  0
   -2.7828    1.0029   -0.7134 H   0  0  0  0  0  0  0  0  0  0  0  0
   -3.3609   -0.3859    0.2189 H   0  0  0  0  0  0  0  0  0  0  0  0
   -2.5922    0.9521    1.0656 H   0  0  0  0  0  0  0  0  0  0  0  0
  1  2  1  0
  2  3  2  0
  3  4  1  0
  4  5  2  0
  5  6  1  0
  6  7  2  0
  7  8  1  0
  6  9  1  0
  7  2  1  0
  1 10  1  0
  1 11  1  0
  1 12  1  0
  3 13  1  0
  4 14  1  0
  5 15  1  0
  8 16  1  0
  8 17  1  0
  8 18  1  0
  9 19  1  0
  9 20  1  0
  9 21  1  0
M  END
>  <SMILES>  (1) 
Cc1cccc(c1C)C

$$$$
