1-adamantanol
     RDKit          3D

 27 29  0  0  0  0  0  0  0  0999 V2000
    1.6670    0.0917   -0.8371 C   0  0  0  0  0  0  0  0  0  0  0  0
    0.5641   -0.9381   -1.1405 C   0  0  0  0  0  0  0  0  0  0  0  0
    0.3166   -1.7971    0.1127 C   0  0  0  0  0  0  0  0  0  0  0  0
   -0.1166   -0.9056    1.2905 C   0  0  0  0  0  0  0  0  0  0  0  0
    0.9906    0.1241    1.5784 C   0  0  0  0  0  0  0  0  0  0  0  0
    1.2411    0.9949    0.3342 C   0  0  0  0  0  0  0  0  0  0  0  0
   -0.0592    1.7251   -0.0397 C   0  0  0  0  0  0  0  0  0  0  0  0
   -1.1706    0.7037   -0.3372 C   0  0  0  0  0  0  0  0  0  0  0  0
   -0.7315   -0.1957   -1.5067 C   0  0  0  0  0  0  0  0  0  0  0  0
   -1.4088   -0.1633    0.9122 C   0  0  0  0  0  0  0  0  0  0  0  0
   -2.3603    1.3996   -0.6797 O   0  0  0  0  0  0  0  0  0  0  0  0
    2.6031   -0.4243   -0.5904 H   0  0  0  0  0  0  0  0  0  0  0  0
    1.8643    0.7017   -1.7272 H   0  0  0  0  0  0  0  0  0  0  0  0
    0.8735   -1.5784   -1.9740 H   0  0  0  0  0  0  0  0  0  0  0  0
   -0.4579   -2.5459   -0.0941 H   0  0  0  0  0  0  0  0  0  0  0  0
    1.2289   -2.3466    0.3756 H   0  0  0  0  0  0  0  0  0  0  0  0
   -0.2895   -1.5227    2.1790 H   0  0  0  0  0  0  0  0  0  0  0  0
    1.9151   -0.3914    1.8665 H   0  0  0  0  0  0  0  0  0  0  0  0
    0.7013    0.7573    2.4261 H   0  0  0  0  0  0  0  0  0  0  0  0
    2.0298    1.7254    0.5453 H   0  0  0  0  0  0  0  0  0  0  0  0
    0.1020    2.3724   -0.9115 H   0  0  0  0  0  0  0  0  0  0  0  0
   -0.3697    2.3949    0.7727 H   0  0  0  0  0  0  0  0  0  0  0  0
   -0.5860    0.4072   -2.4124 H   0  0  0  0  0  0  0  0  0  0  0  0
   -1.5260   -0.9122   -1.7521 H   0  0  0  0  0  0  0  0  0  0  0  0
   -1.7506    0.4629    1.7464 H   0  0  0  0  0  0  0  0  0  0  0  0
   -2.2203   -0.8790    0.7270 H   0  0  0  0  0  0  0  0  0  0  0  0
   -3.0503    0.7396   -0.8641 H   0  0  0  0  0  0  0  0  0  0  0  0
  1  2  1  0
  2  3  1  0
  3  4  1  0
  4  5  1  0
  5  6  1  0
  6  7  1  0
  7  8  1  0
  8  9  1  0
  8 10  1  0
  8 11  1  0
  6  1  1  0
  9  2  1  0
 10  4  1  0
  1 12  1  0
  1 13  1  0
  2 14  1  0
  3 15  1  0
  3 16  1  0
  4 17  1  0
  5 18  1  0
  5 19  1  0
  6 20  1  0
  7 21  1  0
  7 22  1  0
  9 23  1  0
  9 24  1  0
 10 25  1  0
 10 26  1  0
 11 27  1  0
M  END
>  <SMILES>  (1) 
C1C2CC3CC1CC(C2)(C3)O

$$$$
