1-hydroxyanthraquinone
     RDKit          3D

 25 27  0  0  0  0  0  0  0  0999 V2000
    3.7109    0.7236    0.7715 C   0  0  0  0  0  0  0  0  0  0  0  0
    3.5772   -0.6082    1.1632 C   0  0  0  0  0  0  0  0  0  0  0  0
    2.3458   -1.2534    1.0373 C   0  0  0  0  0  0  0  0  0  0  0  0
    1.2437   -0.5628    0.5173 C   0  0  0  0  0  0  0  0  0  0  0  0
    1.3768    0.7677    0.1258 C   0  0  0  0  0  0  0  0  0  0  0  0
    2.6135    1.4131    0.2530 C   0  0  0  0  0  0  0  0  0  0  0  0
    0.2205    1.5029   -0.4232 C   0  0  0  0  0  0  0  0  0  0  0  0
    0.3376    2.6731   -0.7675 O   0  0  0  0  0  0  0  0  0  0  0  0
   -1.0786    0.8113   -0.5525 C   0  0  0  0  0  0  0  0  0  0  0  0
   -2.1784    1.5079   -1.0738 C   0  0  0  0  0  0  0  0  0  0  0  0
   -3.4131    0.8708   -1.2031 C   0  0  0  0  0  0  0  0  0  0  0  0
   -3.5526   -0.4603   -0.8132 C   0  0  0  0  0  0  0  0  0  0  0  0
   -2.4592   -1.1516   -0.2953 C   0  0  0  0  0  0  0  0  0  0  0  0
   -1.2147   -0.5210   -0.1612 C   0  0  0  0  0  0  0  0  0  0  0  0
   -0.0546   -1.2501    0.3869 C   0  0  0  0  0  0  0  0  0  0  0  0
   -0.1823   -2.4226    0.7290 O   0  0  0  0  0  0  0  0  0  0  0  0
   -2.6805   -2.4543    0.0634 O   0  0  0  0  0  0  0  0  0  0  0  0
    4.6707    1.2264    0.8695 H   0  0  0  0  0  0  0  0  0  0  0  0
    4.4330   -1.1451    1.5672 H   0  0  0  0  0  0  0  0  0  0  0  0
    2.2506   -2.2932    1.3457 H   0  0  0  0  0  0  0  0  0  0  0  0
    2.7260    2.4527   -0.0506 H   0  0  0  0  0  0  0  0  0  0  0  0
   -2.0767    2.5480   -1.3804 H   0  0  0  0  0  0  0  0  0  0  0  0
   -4.2660    1.4112   -1.6075 H   0  0  0  0  0  0  0  0  0  0  0  0
   -4.5127   -0.9614   -0.9120 H   0  0  0  0  0  0  0  0  0  0  0  0
   -1.8370   -2.8246    0.4105 H   0  0  0  0  0  0  0  0  0  0  0  0
  1  2  2  0
  2  3  1  0
  3  4  2  0
  4  5  1  0
  5  6  2  0
  5  7  1  0
  7  8  2  0
  7  9  1  0
  9 10  2  0
 10 11  1  0
 11 12  2  0
 12 13  1  0
 13 14  2  0
 14 15  1  0
 15 16  2  0
 13 17  1  0
  6  1  1  0
 15  4  1  0
 14  9  1  0
  1 18  1  0
  2 19  1  0
  3 20  1  0
  6 21  1  0
 10 22  1  0
 11 23  1  0
 12 24  1  0
 17 25  1  0
M  END
>  <SMILES>  (1) 
c1ccc2c(c1)C(=O)c3cccc(c3C2=O)O

$$$$
