1-methyl-1phenylethylhydroperoxide
     RDKit          3D

 23 23  0  0  0  0  0  0  0  0999 V2000
   -1.6223   -0.5934    1.5544 C   0  0  0  0  0  0  0  0  0  0  0  0
   -1.2513   -0.2685    0.0958 C   0  0  0  0  0  0  0  0  0  0  0  0
   -1.6898   -1.4609   -0.7744 C   0  0  0  0  0  0  0  0  0  0  0  0
    0.2372    0.0929    0.0292 C   0  0  0  0  0  0  0  0  0  0  0  0
    1.1897   -0.7303   -0.5927 C   0  0  0  0  0  0  0  0  0  0  0  0
    2.5394   -0.3667   -0.6318 C   0  0  0  0  0  0  0  0  0  0  0  0
    2.9631    0.8240   -0.0485 C   0  0  0  0  0  0  0  0  0  0  0  0
    2.0386    1.6543    0.5765 C   0  0  0  0  0  0  0  0  0  0  0  0
    0.6906    1.2920    0.6157 C   0  0  0  0  0  0  0  0  0  0  0  0
   -2.0484    0.8873   -0.2647 O   0  0  0  0  0  0  0  0  0  0  0  0
   -1.8164    1.1681   -1.6820 O   0  0  0  0  0  0  0  0  0  0  0  0
   -1.0447   -1.4407    1.9402 H   0  0  0  0  0  0  0  0  0  0  0  0
   -1.4542    0.2638    2.2168 H   0  0  0  0  0  0  0  0  0  0  0  0
   -2.6888   -0.8342    1.6399 H   0  0  0  0  0  0  0  0  0  0  0  0
   -1.4180   -1.3189   -1.8266 H   0  0  0  0  0  0  0  0  0  0  0  0
   -1.2403   -2.4007   -0.4352 H   0  0  0  0  0  0  0  0  0  0  0  0
   -2.7798   -1.5769   -0.7504 H   0  0  0  0  0  0  0  0  0  0  0  0
    0.9044   -1.6693   -1.0600 H   0  0  0  0  0  0  0  0  0  0  0  0
    3.2608   -1.0177   -1.1197 H   0  0  0  0  0  0  0  0  0  0  0  0
    4.0130    1.1028   -0.0799 H   0  0  0  0  0  0  0  0  0  0  0  0
    2.3650    2.5836    1.0361 H   0  0  0  0  0  0  0  0  0  0  0  0
   -0.0142    1.9577    1.1116 H   0  0  0  0  0  0  0  0  0  0  0  0
   -1.1336    1.8515   -1.5503 H   0  0  0  0  0  0  0  0  0  0  0  0
  1  2  1  0
  2  3  1  0
  2  4  1  0
  4  5  2  0
  5  6  1  0
  6  7  2  0
  7  8  1  0
  8  9  2  0
  2 10  1  0
 10 11  1  0
  9  4  1  0
  1 12  1  0
  1 13  1  0
  1 14  1  0
  3 15  1  0
  3 16  1  0
  3 17  1  0
  5 18  1  0
  6 19  1  0
  7 20  1  0
  8 21  1  0
  9 22  1  0
 11 23  1  0
M  END
>  <SMILES>  (1) 
CC(C)(c1ccccc1)OO

$$$$
1-methyl-1phenylethylhydroperoxide
     RDKit          3D

 23 23  0  0  0  0  0  0  0  0999 V2000
   -2.1036    0.0053    0.8736 C   0  0  0  0  0  0  0  0  0  0  0  0
   -1.1579    0.0558   -0.3407 C   0  0  0  0  0  0  0  0  0  0  0  0
   -1.4780   -1.1385   -1.2558 C   0  0  0  0  0  0  0  0  0  0  0  0
    0.3338    0.0005    0.0083 C   0  0  0  0  0  0  0  0  0  0  0  0
    0.8090   -0.6910    1.1364 C   0  0  0  0  0  0  0  0  0  0  0  0
    2.1769   -0.7565    1.4187 C   0  0  0  0  0  0  0  0  0  0  0  0
    3.0965   -0.1395    0.5756 C   0  0  0  0  0  0  0  0  0  0  0  0
    2.6502    0.5408   -0.5529 C   0  0  0  0  0  0  0  0  0  0  0  0
    1.2838    0.6057   -0.8355 C   0  0  0  0  0  0  0  0  0  0  0  0
   -1.4889    1.2310   -1.1239 O   0  0  0  0  0  0  0  0  0  0  0  0
   -1.2822    2.4083   -0.2826 O   0  0  0  0  0  0  0  0  0  0  0  0
   -3.1382    0.1990    0.5665 H   0  0  0  0  0  0  0  0  0  0  0  0
   -1.8463    0.7722    1.6133 H   0  0  0  0  0  0  0  0  0  0  0  0
   -2.0800   -0.9663    1.3784 H   0  0  0  0  0  0  0  0  0  0  0  0
   -0.8879   -1.0997   -2.1796 H   0  0  0  0  0  0  0  0  0  0  0  0
   -2.5303   -1.1226   -1.5636 H   0  0  0  0  0  0  0  0  0  0  0  0
   -1.2767   -2.0969   -0.7644 H   0  0  0  0  0  0  0  0  0  0  0  0
    0.1255   -1.1962    1.8132 H   0  0  0  0  0  0  0  0  0  0  0  0
    2.5234   -1.2925    2.2985 H   0  0  0  0  0  0  0  0  0  0  0  0
    4.1590   -0.1895    0.7967 H   0  0  0  0  0  0  0  0  0  0  0  0
    3.3628    1.0245   -1.2156 H   0  0  0  0  0  0  0  0  0  0  0  0
    0.9593    1.1449   -1.7238 H   0  0  0  0  0  0  0  0  0  0  0  0
   -2.2105    2.7012   -0.2751 H   0  0  0  0  0  0  0  0  0  0  0  0
  1  2  1  0
  2  3  1  0
  2  4  1  0
  4  5  2  0
  5  6  1  0
  6  7  2  0
  7  8  1  0
  8  9  2  0
  2 10  1  0
 10 11  1  0
  9  4  1  0
  1 12  1  0
  1 13  1  0
  1 14  1  0
  3 15  1  0
  3 16  1  0
  3 17  1  0
  5 18  1  0
  6 19  1  0
  7 20  1  0
  8 21  1  0
  9 22  1  0
 11 23  1  0
M  END
>  <SMILES>  (2) 
CC(C)(c1ccccc1)OO

$$$$
1-methyl-1phenylethylhydroperoxide
     RDKit          3D

 23 23  0  0  0  0  0  0  0  0999 V2000
   -1.3181   -0.9972    1.5266 C   0  0  0  0  0  0  0  0  0  0  0  0
   -1.1581   -0.0216    0.3480 C   0  0  0  0  0  0  0  0  0  0  0  0
   -2.0746   -0.4887   -0.7979 C   0  0  0  0  0  0  0  0  0  0  0  0
    0.3304    0.0484   -0.0121 C   0  0  0  0  0  0  0  0  0  0  0  0
    0.9094   -0.8186   -0.9553 C   0  0  0  0  0  0  0  0  0  0  0  0
    2.2759   -0.7598   -1.2454 C   0  0  0  0  0  0  0  0  0  0  0  0
    3.0915    0.1605   -0.5933 C   0  0  0  0  0  0  0  0  0  0  0  0
    2.5427    1.0208    0.3523 C   0  0  0  0  0  0  0  0  0  0  0  0
    1.1776    0.9616    0.6428 C   0  0  0  0  0  0  0  0  0  0  0  0
   -1.6581    1.2485    0.8387 O   0  0  0  0  0  0  0  0  0  0  0  0
   -1.6088    2.2097   -0.2614 O   0  0  0  0  0  0  0  0  0  0  0  0
   -0.9798   -2.0076    1.2711 H   0  0  0  0  0  0  0  0  0  0  0  0
   -0.7490   -0.6593    2.4012 H   0  0  0  0  0  0  0  0  0  0  0  0
   -2.3655   -1.0542    1.8459 H   0  0  0  0  0  0  0  0  0  0  0  0
   -1.9189    0.1088   -1.7035 H   0  0  0  0  0  0  0  0  0  0  0  0
   -3.1292   -0.3724   -0.5217 H   0  0  0  0  0  0  0  0  0  0  0  0
   -1.9104   -1.5394   -1.0592 H   0  0  0  0  0  0  0  0  0  0  0  0
    0.3102   -1.5593   -1.4777 H   0  0  0  0  0  0  0  0  0  0  0  0
    2.7031   -1.4361   -1.9813 H   0  0  0  0  0  0  0  0  0  0  0  0
    4.1528    0.2066   -0.8207 H   0  0  0  0  0  0  0  0  0  0  0  0
    3.1737    1.7416    0.8654 H   0  0  0  0  0  0  0  0  0  0  0  0
    0.7717    1.6461    1.3857 H   0  0  0  0  0  0  0  0  0  0  0  0
   -2.5688    2.3614   -0.3165 H   0  0  0  0  0  0  0  0  0  0  0  0
  1  2  1  0
  2  3  1  0
  2  4  1  0
  4  5  2  0
  5  6  1  0
  6  7  2  0
  7  8  1  0
  8  9  2  0
  2 10  1  0
 10 11  1  0
  9  4  1  0
  1 12  1  0
  1 13  1  0
  1 14  1  0
  3 15  1  0
  3 16  1  0
  3 17  1  0
  5 18  1  0
  6 19  1  0
  7 20  1  0
  8 21  1  0
  9 22  1  0
 11 23  1  0
M  END
>  <SMILES>  (3) 
CC(C)(c1ccccc1)OO

$$$$
1-methyl-1phenylethylhydroperoxide
     RDKit          3D

 23 23  0  0  0  0  0  0  0  0999 V2000
   -2.1604   -0.0589    0.7000 C   0  0  0  0  0  0  0  0  0  0  0  0
   -1.1242   -0.1274   -0.4371 C   0  0  0  0  0  0  0  0  0  0  0  0
   -1.2587   -1.4913   -1.1356 C   0  0  0  0  0  0  0  0  0  0  0  0
    0.3319    0.0335    0.0147 C   0  0  0  0  0  0  0  0  0  0  0  0
    1.2919    0.5740   -0.8610 C   0  0  0  0  0  0  0  0  0  0  0  0
    2.6301    0.7008   -0.4809 C   0  0  0  0  0  0  0  0  0  0  0  0
    3.0386    0.2805    0.7808 C   0  0  0  0  0  0  0  0  0  0  0  0
    2.1098   -0.2687    1.6601 C   0  0  0  0  0  0  0  0  0  0  0  0
    0.7701   -0.3950    1.2800 C   0  0  0  0  0  0  0  0  0  0  0  0
   -1.4913    0.8503   -1.4438 O   0  0  0  0  0  0  0  0  0  0  0  0
   -1.4615    2.1728   -0.8221 O   0  0  0  0  0  0  0  0  0  0  0  0
   -3.1786   -0.0299    0.2942 H   0  0  0  0  0  0  0  0  0  0  0  0
   -2.0932   -0.9182    1.3756 H   0  0  0  0  0  0  0  0  0  0  0  0
   -2.0354    0.8491    1.3011 H   0  0  0  0  0  0  0  0  0  0  0  0
   -0.5987   -1.5563   -2.0093 H   0  0  0  0  0  0  0  0  0  0  0  0
   -1.0150   -2.3218   -0.4637 H   0  0  0  0  0  0  0  0  0  0  0  0
   -2.2786   -1.6383   -1.5104 H   0  0  0  0  0  0  0  0  0  0  0  0
    0.9967    0.9112   -1.8531 H   0  0  0  0  0  0  0  0  0  0  0  0
    3.3500    1.1301   -1.1725 H   0  0  0  0  0  0  0  0  0  0  0  0
    4.0789    0.3798    1.0777 H   0  0  0  0  0  0  0  0  0  0  0  0
    2.4273   -0.6020    2.6447 H   0  0  0  0  0  0  0  0  0  0  0  0
    0.0797   -0.8399    1.9913 H   0  0  0  0  0  0  0  0  0  0  0  0
   -2.4095    2.3655   -0.9307 H   0  0  0  0  0  0  0  0  0  0  0  0
  1  2  1  0
  2  3  1  0
  2  4  1  0
  4  5  2  0
  5  6  1  0
  6  7  2  0
  7  8  1  0
  8  9  2  0
  2 10  1  0
 10 11  1  0
  9  4  1  0
  1 12  1  0
  1 13  1  0
  1 14  1  0
  3 15  1  0
  3 16  1  0
  3 17  1  0
  5 18  1  0
  6 19  1  0
  7 20  1  0
  8 21  1  0
  9 22  1  0
 11 23  1  0
M  END
>  <SMILES>  (4) 
CC(C)(c1ccccc1)OO

$$$$
1-methyl-1phenylethylhydroperoxide
     RDKit          3D

 23 23  0  0  0  0  0  0  0  0999 V2000
   -1.7168   -1.3238    0.4591 C   0  0  0  0  0  0  0  0  0  0  0  0
   -1.0492    0.0600    0.3696 C   0  0  0  0  0  0  0  0  0  0  0  0
   -1.7987    0.9489   -0.6374 C   0  0  0  0  0  0  0  0  0  0  0  0
    0.4286   -0.0008   -0.0486 C   0  0  0  0  0  0  0  0  0  0  0  0
    1.2787    1.0873    0.2353 C   0  0  0  0  0  0  0  0  0  0  0  0
    2.6224    1.0807   -0.1463 C   0  0  0  0  0  0  0  0  0  0  0  0
    3.1460   -0.0125   -0.8280 C   0  0  0  0  0  0  0  0  0  0  0  0
    2.3252   -1.0949   -1.1300 C   0  0  0  0  0  0  0  0  0  0  0  0
    0.9795   -1.0885   -0.7479 C   0  0  0  0  0  0  0  0  0  0  0  0
   -1.0740    0.6583    1.6891 O   0  0  0  0  0  0  0  0  0  0  0  0
   -2.4646    0.8825    2.0707 O   0  0  0  0  0  0  0  0  0  0  0  0
   -1.7705   -1.8219   -0.5146 H   0  0  0  0  0  0  0  0  0  0  0  0
   -2.7427   -1.2514    0.8369 H   0  0  0  0  0  0  0  0  0  0  0  0
   -1.1765   -1.9742    1.1569 H   0  0  0  0  0  0  0  0  0  0  0  0
   -2.8701    0.9947   -0.4124 H   0  0  0  0  0  0  0  0  0  0  0  0
   -1.4320    1.9815   -0.6070 H   0  0  0  0  0  0  0  0  0  0  0  0
   -1.6897    0.5762   -1.6622 H   0  0  0  0  0  0  0  0  0  0  0  0
    0.8922    1.9578    0.7638 H   0  0  0  0  0  0  0  0  0  0  0  0
    3.2565    1.9311    0.0896 H   0  0  0  0  0  0  0  0  0  0  0  0
    4.1909   -0.0198   -1.1260 H   0  0  0  0  0  0  0  0  0  0  0  0
    2.7309   -1.9483   -1.6675 H   0  0  0  0  0  0  0  0  0  0  0  0
    0.3775   -1.9522   -1.0157 H   0  0  0  0  0  0  0  0  0  0  0  0
   -2.4435    0.3295    2.8727 H   0  0  0  0  0  0  0  0  0  0  0  0
  1  2  1  0
  2  3  1  0
  2  4  1  0
  4  5  2  0
  5  6  1  0
  6  7  2  0
  7  8  1  0
  8  9  2  0
  2 10  1  0
 10 11  1  0
  9  4  1  0
  1 12  1  0
  1 13  1  0
  1 14  1  0
  3 15  1  0
  3 16  1  0
  3 17  1  0
  5 18  1  0
  6 19  1  0
  7 20  1  0
  8 21  1  0
  9 22  1  0
 11 23  1  0
M  END
>  <SMILES>  (5) 
CC(C)(c1ccccc1)OO

$$$$
1-methyl-1phenylethylhydroperoxide
     RDKit          3D

 23 23  0  0  0  0  0  0  0  0999 V2000
   -1.1530   -1.6345   -1.1829 C   0  0  0  0  0  0  0  0  0  0  0  0
   -1.1877   -0.4339   -0.2195 C   0  0  0  0  0  0  0  0  0  0  0  0
   -1.9217   -0.8813    1.0582 C   0  0  0  0  0  0  0  0  0  0  0  0
    0.2409    0.0857   -0.0196 C   0  0  0  0  0  0  0  0  0  0  0  0
    0.9100    0.7152   -1.0889 C   0  0  0  0  0  0  0  0  0  0  0  0
    2.2116    1.1999   -0.9455 C   0  0  0  0  0  0  0  0  0  0  0  0
    2.8735    1.0637    0.2703 C   0  0  0  0  0  0  0  0  0  0  0  0
    2.2342    0.4426    1.3396 C   0  0  0  0  0  0  0  0  0  0  0  0
    0.9308   -0.0433    1.1965 C   0  0  0  0  0  0  0  0  0  0  0  0
   -1.9849    0.5793   -0.8822 O   0  0  0  0  0  0  0  0  0  0  0  0
   -2.1437    1.7016    0.0432 O   0  0  0  0  0  0  0  0  0  0  0  0
   -2.1649   -2.0160   -1.3652 H   0  0  0  0  0  0  0  0  0  0  0  0
   -0.7560   -1.3551   -2.1658 H   0  0  0  0  0  0  0  0  0  0  0  0
   -0.5409   -2.4531   -0.7881 H   0  0  0  0  0  0  0  0  0  0  0  0
   -2.9661   -1.1311    0.8368 H   0  0  0  0  0  0  0  0  0  0  0  0
   -1.4509   -1.7600    1.5128 H   0  0  0  0  0  0  0  0  0  0  0  0
   -1.9481   -0.0864    1.8122 H   0  0  0  0  0  0  0  0  0  0  0  0
    0.4127    0.8324   -2.0507 H   0  0  0  0  0  0  0  0  0  0  0  0
    2.7077    1.6813   -1.7843 H   0  0  0  0  0  0  0  0  0  0  0  0
    3.8869    1.4391    0.3848 H   0  0  0  0  0  0  0  0  0  0  0  0
    2.7505    0.3341    2.2903 H   0  0  0  0  0  0  0  0  0  0  0  0
    0.4715   -0.5220    2.0574 H   0  0  0  0  0  0  0  0  0  0  0  0
   -1.4126    2.2417   -0.3094 H   0  0  0  0  0  0  0  0  0  0  0  0
  1  2  1  0
  2  3  1  0
  2  4  1  0
  4  5  2  0
  5  6  1  0
  6  7  2  0
  7  8  1  0
  8  9  2  0
  2 10  1  0
 10 11  1  0
  9  4  1  0
  1 12  1  0
  1 13  1  0
  1 14  1  0
  3 15  1  0
  3 16  1  0
  3 17  1  0
  5 18  1  0
  6 19  1  0
  7 20  1  0
  8 21  1  0
  9 22  1  0
 11 23  1  0
M  END
>  <SMILES>  (6) 
CC(C)(c1ccccc1)OO

$$$$
1-methyl-1phenylethylhydroperoxide
     RDKit          3D

 23 23  0  0  0  0  0  0  0  0999 V2000
   -1.5232    0.2592   -1.6654 C   0  0  0  0  0  0  0  0  0  0  0  0
   -1.1993    0.0160   -0.1797 C   0  0  0  0  0  0  0  0  0  0  0  0
   -1.8050   -1.3360    0.2346 C   0  0  0  0  0  0  0  0  0  0  0  0
    0.2971   -0.0121    0.1519 C   0  0  0  0  0  0  0  0  0  0  0  0
    0.7487    0.3656    1.4302 C   0  0  0  0  0  0  0  0  0  0  0  0
    2.1044    0.3179    1.7636 C   0  0  0  0  0  0  0  0  0  0  0  0
    3.0368   -0.1181    0.8277 C   0  0  0  0  0  0  0  0  0  0  0  0
    2.6130   -0.5085   -0.4393 C   0  0  0  0  0  0  0  0  0  0  0  0
    1.2561   -0.4601   -0.7734 C   0  0  0  0  0  0  0  0  0  0  0  0
   -1.9111    1.0055    0.6067 O   0  0  0  0  0  0  0  0  0  0  0  0
   -1.4382    2.3287    0.2043 O   0  0  0  0  0  0  0  0  0  0  0  0
   -1.2214   -0.5813   -2.2993 H   0  0  0  0  0  0  0  0  0  0  0  0
   -2.5991    0.4164   -1.8062 H   0  0  0  0  0  0  0  0  0  0  0  0
   -1.0221    1.1583   -2.0421 H   0  0  0  0  0  0  0  0  0  0  0  0
   -1.3499   -2.1724   -0.3075 H   0  0  0  0  0  0  0  0  0  0  0  0
   -1.6750   -1.5163    1.3087 H   0  0  0  0  0  0  0  0  0  0  0  0
   -2.8857   -1.3519    0.0498 H   0  0  0  0  0  0  0  0  0  0  0  0
    0.0386    0.7115    2.1795 H   0  0  0  0  0  0  0  0  0  0  0  0
    2.4284    0.6240    2.7547 H   0  0  0  0  0  0  0  0  0  0  0  0
    4.0915   -0.1544    1.0857 H   0  0  0  0  0  0  0  0  0  0  0  0
    3.3390   -0.8539   -1.1708 H   0  0  0  0  0  0  0  0  0  0  0  0
    0.9657   -0.7850   -1.7687 H   0  0  0  0  0  0  0  0  0  0  0  0
   -2.2893    2.6468   -0.1452 H   0  0  0  0  0  0  0  0  0  0  0  0
  1  2  1  0
  2  3  1  0
  2  4  1  0
  4  5  2  0
  5  6  1  0
  6  7  2  0
  7  8  1  0
  8  9  2  0
  2 10  1  0
 10 11  1  0
  9  4  1  0
  1 12  1  0
  1 13  1  0
  1 14  1  0
  3 15  1  0
  3 16  1  0
  3 17  1  0
  5 18  1  0
  6 19  1  0
  7 20  1  0
  8 21  1  0
  9 22  1  0
 11 23  1  0
M  END
>  <SMILES>  (7) 
CC(C)(c1ccccc1)OO

$$$$
1-methyl-1phenylethylhydroperoxide
     RDKit          3D

 23 23  0  0  0  0  0  0  0  0999 V2000
   -1.5711    1.3859   -0.3912 C   0  0  0  0  0  0  0  0  0  0  0  0
   -1.0949    0.0480    0.1998 C   0  0  0  0  0  0  0  0  0  0  0  0
   -1.8582   -1.1218   -0.4463 C   0  0  0  0  0  0  0  0  0  0  0  0
    0.4288   -0.0430    0.0191 C   0  0  0  0  0  0  0  0  0  0  0  0
    1.2776    0.6750    0.8859 C   0  0  0  0  0  0  0  0  0  0  0  0
    2.6665    0.6360    0.7426 C   0  0  0  0  0  0  0  0  0  0  0  0
    3.2393   -0.1169   -0.2767 C   0  0  0  0  0  0  0  0  0  0  0  0
    2.4230   -0.8262   -1.1527 C   0  0  0  0  0  0  0  0  0  0  0  0
    1.0320   -0.7874   -1.0093 C   0  0  0  0  0  0  0  0  0  0  0  0
   -1.3379    0.0106    1.6278 O   0  0  0  0  0  0  0  0  0  0  0  0
   -2.7581    0.2497    1.8630 O   0  0  0  0  0  0  0  0  0  0  0  0
   -2.6603    1.4874   -0.3281 H   0  0  0  0  0  0  0  0  0  0  0  0
   -1.1491    2.2362    0.1573 H   0  0  0  0  0  0  0  0  0  0  0  0
   -1.2885    1.4834   -1.4455 H   0  0  0  0  0  0  0  0  0  0  0  0
   -2.9311   -1.0697   -0.2302 H   0  0  0  0  0  0  0  0  0  0  0  0
   -1.7531   -1.1338   -1.5361 H   0  0  0  0  0  0  0  0  0  0  0  0
   -1.5100   -2.0826   -0.0493 H   0  0  0  0  0  0  0  0  0  0  0  0
    0.8541    1.2762    1.6895 H   0  0  0  0  0  0  0  0  0  0  0  0
    3.2975    1.1955    1.4280 H   0  0  0  0  0  0  0  0  0  0  0  0
    4.3194   -0.1486   -0.3903 H   0  0  0  0  0  0  0  0  0  0  0  0
    2.8682   -1.4112   -1.9536 H   0  0  0  0  0  0  0  0  0  0  0  0
    0.4378   -1.3495   -1.7240 H   0  0  0  0  0  0  0  0  0  0  0  0
   -2.9319   -0.5930    2.3203 H   0  0  0  0  0  0  0  0  0  0  0  0
  1  2  1  0
  2  3  1  0
  2  4  1  0
  4  5  2  0
  5  6  1  0
  6  7  2  0
  7  8  1  0
  8  9  2  0
  2 10  1  0
 10 11  1  0
  9  4  1  0
  1 12  1  0
  1 13  1  0
  1 14  1  0
  3 15  1  0
  3 16  1  0
  3 17  1  0
  5 18  1  0
  6 19  1  0
  7 20  1  0
  8 21  1  0
  9 22  1  0
 11 23  1  0
M  END
>  <SMILES>  (8) 
CC(C)(c1ccccc1)OO

$$$$
1-methyl-1phenylethylhydroperoxide
     RDKit          3D

 23 23  0  0  0  0  0  0  0  0999 V2000
   -1.5404    0.1575    1.4785 C   0  0  0  0  0  0  0  0  0  0  0  0
   -1.1094   -0.1898    0.0424 C   0  0  0  0  0  0  0  0  0  0  0  0
   -1.3658   -1.6721   -0.2769 C   0  0  0  0  0  0  0  0  0  0  0  0
    0.3866    0.1225   -0.1409 C   0  0  0  0  0  0  0  0  0  0  0  0
    1.3577   -0.5004    0.6676 C   0  0  0  0  0  0  0  0  0  0  0  0
    2.7187   -0.2254    0.5089 C   0  0  0  0  0  0  0  0  0  0  0  0
    3.1394    0.6764   -0.4632 C   0  0  0  0  0  0  0  0  0  0  0  0
    2.2000    1.3011   -1.2776 C   0  0  0  0  0  0  0  0  0  0  0  0
    0.8385    1.0265   -1.1192 C   0  0  0  0  0  0  0  0  0  0  0  0
   -1.8655    0.6277   -0.8837 O   0  0  0  0  0  0  0  0  0  0  0  0
   -3.2856    0.3419   -0.7059 O   0  0  0  0  0  0  0  0  0  0  0  0
   -2.6052   -0.0438    1.6394 H   0  0  0  0  0  0  0  0  0  0  0  0
   -0.9870   -0.4125    2.2319 H   0  0  0  0  0  0  0  0  0  0  0  0
   -1.3908    1.2250    1.6797 H   0  0  0  0  0  0  0  0  0  0  0  0
   -1.0995   -1.8962   -1.3167 H   0  0  0  0  0  0  0  0  0  0  0  0
   -0.7949   -2.3432    0.3733 H   0  0  0  0  0  0  0  0  0  0  0  0
   -2.4244   -1.9305   -0.1636 H   0  0  0  0  0  0  0  0  0  0  0  0
    1.0649   -1.2148    1.4339 H   0  0  0  0  0  0  0  0  0  0  0  0
    3.4496   -0.7184    1.1446 H   0  0  0  0  0  0  0  0  0  0  0  0
    4.1973    0.8900   -0.5885 H   0  0  0  0  0  0  0  0  0  0  0  0
    2.5240    2.0034   -2.0414 H   0  0  0  0  0  0  0  0  0  0  0  0
    0.1351    1.5307   -1.7787 H   0  0  0  0  0  0  0  0  0  0  0  0
   -3.5432    1.2442   -0.4437 H   0  0  0  0  0  0  0  0  0  0  0  0
  1  2  1  0
  2  3  1  0
  2  4  1  0
  4  5  2  0
  5  6  1  0
  6  7  2  0
  7  8  1  0
  8  9  2  0
  2 10  1  0
 10 11  1  0
  9  4  1  0
  1 12  1  0
  1 13  1  0
  1 14  1  0
  3 15  1  0
  3 16  1  0
  3 17  1  0
  5 18  1  0
  6 19  1  0
  7 20  1  0
  8 21  1  0
  9 22  1  0
 11 23  1  0
M  END
>  <SMILES>  (9) 
CC(C)(c1ccccc1)OO

$$$$
1-methyl-1phenylethylhydroperoxide
     RDKit          3D

 23 23  0  0  0  0  0  0  0  0999 V2000
    1.6201    0.9619   -1.0942 C   0  0  0  0  0  0  0  0  0  0  0  0
    1.1243   -0.0514   -0.0490 C   0  0  0  0  0  0  0  0  0  0  0  0
    1.6178    0.3120    1.3628 C   0  0  0  0  0  0  0  0  0  0  0  0
   -0.4143   -0.0941   -0.0664 C   0  0  0  0  0  0  0  0  0  0  0  0
   -1.1713    1.0429    0.2785 C   0  0  0  0  0  0  0  0  0  0  0  0
   -2.5685    1.0157    0.2647 C   0  0  0  0  0  0  0  0  0  0  0  0
   -3.2400   -0.1478   -0.0967 C   0  0  0  0  0  0  0  0  0  0  0  0
   -2.5149   -1.2827   -0.4462 C   0  0  0  0  0  0  0  0  0  0  0  0
   -1.1172   -1.2561   -0.4324 C   0  0  0  0  0  0  0  0  0  0  0  0
    1.6236   -1.3660   -0.3954 O   0  0  0  0  0  0  0  0  0  0  0  0
    3.0825   -1.3322   -0.3701 O   0  0  0  0  0  0  0  0  0  0  0  0
    2.7142    1.0147   -1.1154 H   0  0  0  0  0  0  0  0  0  0  0  0
    1.2484    1.9739   -0.9026 H   0  0  0  0  0  0  0  0  0  0  0  0
    1.3025    0.6666   -2.1013 H   0  0  0  0  0  0  0  0  0  0  0  0
    1.2922   -0.4398    2.0916 H   0  0  0  0  0  0  0  0  0  0  0  0
    1.2543    1.2896    1.6956 H   0  0  0  0  0  0  0  0  0  0  0  0
    2.7119    0.3407    1.4121 H   0  0  0  0  0  0  0  0  0  0  0  0
   -0.6792    1.9711    0.5608 H   0  0  0  0  0  0  0  0  0  0  0  0
   -3.1311    1.9056    0.5348 H   0  0  0  0  0  0  0  0  0  0  0  0
   -4.3262   -0.1698   -0.1090 H   0  0  0  0  0  0  0  0  0  0  0  0
   -3.0349   -2.1930   -0.7333 H   0  0  0  0  0  0  0  0  0  0  0  0
   -0.5858   -2.1618   -0.7174 H   0  0  0  0  0  0  0  0  0  0  0  0
    3.1917   -2.0000    0.3309 H   0  0  0  0  0  0  0  0  0  0  0  0
  1  2  1  0
  2  3  1  0
  2  4  1  0
  4  5  2  0
  5  6  1  0
  6  7  2  0
  7  8  1  0
  8  9  2  0
  2 10  1  0
 10 11  1  0
  9  4  1  0
  1 12  1  0
  1 13  1  0
  1 14  1  0
  3 15  1  0
  3 16  1  0
  3 17  1  0
  5 18  1  0
  6 19  1  0
  7 20  1  0
  8 21  1  0
  9 22  1  0
 11 23  1  0
M  END
>  <SMILES>  (10) 
CC(C)(c1ccccc1)OO

$$$$
1-methyl-1phenylethylhydroperoxide
     RDKit          3D

 23 23  0  0  0  0  0  0  0  0999 V2000
   -1.5685    1.0488   -1.3566 C   0  0  0  0  0  0  0  0  0  0  0  0
   -1.2669    0.1356   -0.1541 C   0  0  0  0  0  0  0  0  0  0  0  0
   -2.0015   -1.1981   -0.3846 C   0  0  0  0  0  0  0  0  0  0  0  0
    0.2524    0.0364    0.0272 C   0  0  0  0  0  0  0  0  0  0  0  0
    0.9788    1.1661    0.4555 C   0  0  0  0  0  0  0  0  0  0  0  0
    2.3632    1.1148    0.6306 C   0  0  0  0  0  0  0  0  0  0  0  0
    3.0518   -0.0673    0.3792 C   0  0  0  0  0  0  0  0  0  0  0  0
    2.3562   -1.1950   -0.0477 C   0  0  0  0  0  0  0  0  0  0  0  0
    0.9699   -1.1442   -0.2236 C   0  0  0  0  0  0  0  0  0  0  0  0
   -1.8515    0.7948    0.9969 O   0  0  0  0  0  0  0  0  0  0  0  0
   -1.6908   -0.0905    2.1508 O   0  0  0  0  0  0  0  0  0  0  0  0
   -2.6501    1.1591   -1.4992 H   0  0  0  0  0  0  0  0  0  0  0  0
   -1.1810    2.0628   -1.2036 H   0  0  0  0  0  0  0  0  0  0  0  0
   -1.1360    0.6547   -2.2830 H   0  0  0  0  0  0  0  0  0  0  0  0
   -1.7978   -1.9188    0.4156 H   0  0  0  0  0  0  0  0  0  0  0  0
   -1.7163   -1.6621   -1.3352 H   0  0  0  0  0  0  0  0  0  0  0  0
   -3.0872   -1.0451   -0.3927 H   0  0  0  0  0  0  0  0  0  0  0  0
    0.4618    2.1031    0.6575 H   0  0  0  0  0  0  0  0  0  0  0  0
    2.9021    1.9989    0.9611 H   0  0  0  0  0  0  0  0  0  0  0  0
    4.1293   -0.1101    0.5137 H   0  0  0  0  0  0  0  0  0  0  0  0
    2.8930   -2.1195   -0.2460 H   0  0  0  0  0  0  0  0  0  0  0  0
    0.4686   -2.0483   -0.5594 H   0  0  0  0  0  0  0  0  0  0  0  0
   -0.8793    0.3239    2.4977 H   0  0  0  0  0  0  0  0  0  0  0  0
  1  2  1  0
  2  3  1  0
  2  4  1  0
  4  5  2  0
  5  6  1  0
  6  7  2  0
  7  8  1  0
  8  9  2  0
  2 10  1  0
 10 11  1  0
  9  4  1  0
  1 12  1  0
  1 13  1  0
  1 14  1  0
  3 15  1  0
  3 16  1  0
  3 17  1  0
  5 18  1  0
  6 19  1  0
  7 20  1  0
  8 21  1  0
  9 22  1  0
 11 23  1  0
M  END
>  <SMILES>  (11) 
CC(C)(c1ccccc1)OO

$$$$
1-methyl-1phenylethylhydroperoxide
     RDKit          3D

 23 23  0  0  0  0  0  0  0  0999 V2000
   -1.9846   -0.6048   -0.9677 C   0  0  0  0  0  0  0  0  0  0  0  0
   -1.1935    0.1203    0.1366 C   0  0  0  0  0  0  0  0  0  0  0  0
   -1.5798   -0.4930    1.4935 C   0  0  0  0  0  0  0  0  0  0  0  0
    0.3303    0.0340   -0.0072 C   0  0  0  0  0  0  0  0  0  0  0  0
    0.9606   -1.0772   -0.5941 C   0  0  0  0  0  0  0  0  0  0  0  0
    2.3539   -1.1507   -0.6860 C   0  0  0  0  0  0  0  0  0  0  0  0
    3.1442   -0.1196   -0.1865 C   0  0  0  0  0  0  0  0  0  0  0  0
    2.5429    0.9847    0.4090 C   0  0  0  0  0  0  0  0  0  0  0  0
    1.1511    1.0578    0.5016 C   0  0  0  0  0  0  0  0  0  0  0  0
   -1.6560    1.4937    0.1976 O   0  0  0  0  0  0  0  0  0  0  0  0
   -1.3905    2.1185   -1.0969 O   0  0  0  0  0  0  0  0  0  0  0  0
   -1.6670   -0.2812   -1.9656 H   0  0  0  0  0  0  0  0  0  0  0  0
   -1.8675   -1.6924   -0.9168 H   0  0  0  0  0  0  0  0  0  0  0  0
   -3.0546   -0.3784   -0.8894 H   0  0  0  0  0  0  0  0  0  0  0  0
   -1.1063    0.0475    2.3222 H   0  0  0  0  0  0  0  0  0  0  0  0
   -1.2884   -1.5468    1.5649 H   0  0  0  0  0  0  0  0  0  0  0  0
   -2.6613   -0.4218    1.6596 H   0  0  0  0  0  0  0  0  0  0  0  0
    0.3808   -1.9086   -0.9854 H   0  0  0  0  0  0  0  0  0  0  0  0
    2.8215   -2.0166   -1.1475 H   0  0  0  0  0  0  0  0  0  0  0  0
    4.2267   -0.1768   -0.2599 H   0  0  0  0  0  0  0  0  0  0  0  0
    3.1540    1.7931    0.8014 H   0  0  0  0  0  0  0  0  0  0  0  0
    0.7042    1.9327    0.9708 H   0  0  0  0  0  0  0  0  0  0  0  0
   -2.3207    2.2856   -1.3300 H   0  0  0  0  0  0  0  0  0  0  0  0
  1  2  1  0
  2  3  1  0
  2  4  1  0
  4  5  2  0
  5  6  1  0
  6  7  2  0
  7  8  1  0
  8  9  2  0
  2 10  1  0
 10 11  1  0
  9  4  1  0
  1 12  1  0
  1 13  1  0
  1 14  1  0
  3 15  1  0
  3 16  1  0
  3 17  1  0
  5 18  1  0
  6 19  1  0
  7 20  1  0
  8 21  1  0
  9 22  1  0
 11 23  1  0
M  END
>  <SMILES>  (12) 
CC(C)(c1ccccc1)OO

$$$$
