3,4,5,6-dibenzocarbazole
     RDKit          3D

 34 38  0  0  0  0  0  0  0  0999 V2000
   -4.0931   -1.5325    0.7205 C   0  0  0  0  0  0  0  0  0  0  0  0
   -3.5449   -0.7770   -0.3080 C   0  0  0  0  0  0  0  0  0  0  0  0
   -2.2335   -0.3071   -0.2060 C   0  0  0  0  0  0  0  0  0  0  0  0
   -1.4287   -0.6044    0.9158 C   0  0  0  0  0  0  0  0  0  0  0  0
   -2.0314   -1.3036    1.9970 C   0  0  0  0  0  0  0  0  0  0  0  0
   -3.3457   -1.7825    1.8708 C   0  0  0  0  0  0  0  0  0  0  0  0
   -1.3358   -1.4794    3.1945 C   0  0  0  0  0  0  0  0  0  0  0  0
   -0.0708   -0.9274    3.3839 C   0  0  0  0  0  0  0  0  0  0  0  0
    0.5238   -0.2714    2.3030 C   0  0  0  0  0  0  0  0  0  0  0  0
   -0.0602   -0.1699    1.0360 C   0  0  0  0  0  0  0  0  0  0  0  0
    0.9659    0.3845    0.1585 C   0  0  0  0  0  0  0  0  0  0  0  0
    1.1682    0.5426   -1.2593 C   0  0  0  0  0  0  0  0  0  0  0  0
    0.3893   -0.1300   -2.2264 C   0  0  0  0  0  0  0  0  0  0  0  0
    0.5867    0.0759   -3.5937 C   0  0  0  0  0  0  0  0  0  0  0  0
    1.5851    0.9381   -4.0285 C   0  0  0  0  0  0  0  0  0  0  0  0
    2.4153    1.5620   -3.0980 C   0  0  0  0  0  0  0  0  0  0  0  0
    2.2415    1.3534   -1.7200 C   0  0  0  0  0  0  0  0  0  0  0  0
    3.1435    1.9078   -0.8102 C   0  0  0  0  0  0  0  0  0  0  0  0
    3.0557    1.6348    0.5530 C   0  0  0  0  0  0  0  0  0  0  0  0
    1.9778    0.8643    0.9965 C   0  0  0  0  0  0  0  0  0  0  0  0
    1.7137    0.4062    2.2603 N   0  0  0  0  0  0  0  0  0  0  0  0
   -5.1130   -1.8995    0.6441 H   0  0  0  0  0  0  0  0  0  0  0  0
   -4.1393   -0.5370   -1.1856 H   0  0  0  0  0  0  0  0  0  0  0  0
   -1.8666    0.3450   -0.9917 H   0  0  0  0  0  0  0  0  0  0  0  0
   -3.8095   -2.3382    2.6830 H   0  0  0  0  0  0  0  0  0  0  0  0
   -1.8004   -2.0049    4.0266 H   0  0  0  0  0  0  0  0  0  0  0  0
    0.4295   -1.0096    4.3436 H   0  0  0  0  0  0  0  0  0  0  0  0
   -0.3459   -0.8693   -1.9264 H   0  0  0  0  0  0  0  0  0  0  0  0
   -0.0315   -0.4515   -4.3154 H   0  0  0  0  0  0  0  0  0  0  0  0
    1.7410    1.1003   -5.0915 H   0  0  0  0  0  0  0  0  0  0  0  0
    3.2194    2.1983   -3.4613 H   0  0  0  0  0  0  0  0  0  0  0  0
    3.9718    2.5195   -1.1627 H   0  0  0  0  0  0  0  0  0  0  0  0
    3.8049    2.0132    1.2413 H   0  0  0  0  0  0  0  0  0  0  0  0
    2.3172    0.5492    3.0563 H   0  0  0  0  0  0  0  0  0  0  0  0
  1  2  2  0
  2  3  1  0
  3  4  2  0
  4  5  1  0
  5  6  2  0
  5  7  1  0
  7  8  2  0
  8  9  1  0
  9 10  2  0
 10 11  1  0
 11 12  2  0
 12 13  1  0
 13 14  2  0
 14 15  1  0
 15 16  2  0
 16 17  1  0
 17 18  2  0
 18 19  1  0
 19 20  2  0
 20 21  1  0
  6  1  1  0
 10  4  1  0
 21  9  1  0
 20 11  1  0
 17 12  1  0
  1 22  1  0
  2 23  1  0
  3 24  1  0
  6 25  1  0
  7 26  1  0
  8 27  1  0
 13 28  1  0
 14 29  1  0
 15 30  1  0
 16 31  1  0
 18 32  1  0
 19 33  1  0
 21 34  1  0
M  END
>  <SMILES>  (1) 
c1ccc2c(c1)ccc3c2c4c5ccccc5ccc4[nH]3

$$$$
3,4,5,6-dibenzocarbazole
     RDKit          3D

 34 38  0  0  0  0  0  0  0  0999 V2000
    4.0118   -1.8709    0.1611 C   0  0  0  0  0  0  0  0  0  0  0  0
    2.7731   -2.3480   -0.2478 C   0  0  0  0  0  0  0  0  0  0  0  0
    1.6824   -1.4791   -0.3271 C   0  0  0  0  0  0  0  0  0  0  0  0
    1.7974   -0.1169    0.0268 C   0  0  0  0  0  0  0  0  0  0  0  0
    3.0895    0.3746    0.3591 C   0  0  0  0  0  0  0  0  0  0  0  0
    4.1716   -0.5161    0.4496 C   0  0  0  0  0  0  0  0  0  0  0  0
    3.2917    1.7418    0.5556 C   0  0  0  0  0  0  0  0  0  0  0  0
    2.2595    2.6593    0.3727 C   0  0  0  0  0  0  0  0  0  0  0  0
    0.9876    2.1611    0.0789 C   0  0  0  0  0  0  0  0  0  0  0  0
    0.6848    0.7981   -0.0050 C   0  0  0  0  0  0  0  0  0  0  0  0
   -0.7686    0.7098   -0.1067 C   0  0  0  0  0  0  0  0  0  0  0  0
   -1.7733   -0.3168    0.0053 C   0  0  0  0  0  0  0  0  0  0  0  0
   -1.5118   -1.5913    0.5546 C   0  0  0  0  0  0  0  0  0  0  0  0
   -2.4995   -2.5772    0.6127 C   0  0  0  0  0  0  0  0  0  0  0  0
   -3.7798   -2.3047    0.1483 C   0  0  0  0  0  0  0  0  0  0  0  0
   -4.0856   -1.0330   -0.3348 C   0  0  0  0  0  0  0  0  0  0  0  0
   -3.1089   -0.0249   -0.3850 C   0  0  0  0  0  0  0  0  0  0  0  0
   -3.4589    1.2679   -0.7786 C   0  0  0  0  0  0  0  0  0  0  0  0
   -2.5356    2.3104   -0.7409 C   0  0  0  0  0  0  0  0  0  0  0  0
   -1.2189    2.0040   -0.3875 C   0  0  0  0  0  0  0  0  0  0  0  0
   -0.1585    2.8532   -0.2114 N   0  0  0  0  0  0  0  0  0  0  0  0
    4.8622   -2.5445    0.2238 H   0  0  0  0  0  0  0  0  0  0  0  0
    2.6539   -3.3930   -0.5215 H   0  0  0  0  0  0  0  0  0  0  0  0
    0.7517   -1.8696   -0.7254 H   0  0  0  0  0  0  0  0  0  0  0  0
    5.1603   -0.1551    0.7248 H   0  0  0  0  0  0  0  0  0  0  0  0
    4.2826    2.1202    0.7991 H   0  0  0  0  0  0  0  0  0  0  0  0
    2.4464    3.7251    0.4581 H   0  0  0  0  0  0  0  0  0  0  0  0
   -0.5471   -1.8140    0.9983 H   0  0  0  0  0  0  0  0  0  0  0  0
   -2.2681   -3.5511    1.0360 H   0  0  0  0  0  0  0  0  0  0  0  0
   -4.5503   -3.0697    0.1922 H   0  0  0  0  0  0  0  0  0  0  0  0
   -5.1057   -0.8274   -0.6519 H   0  0  0  0  0  0  0  0  0  0  0  0
   -4.4834    1.4950   -1.0670 H   0  0  0  0  0  0  0  0  0  0  0  0
   -2.8381    3.3249   -0.9804 H   0  0  0  0  0  0  0  0  0  0  0  0
   -0.2143    3.8580   -0.2859 H   0  0  0  0  0  0  0  0  0  0  0  0
  1  2  2  0
  2  3  1  0
  3  4  2  0
  4  5  1  0
  5  6  2  0
  5  7  1  0
  7  8  2  0
  8  9  1  0
  9 10  2  0
 10 11  1  0
 11 12  2  0
 12 13  1  0
 13 14  2  0
 14 15  1  0
 15 16  2  0
 16 17  1  0
 17 18  2  0
 18 19  1  0
 19 20  2  0
 20 21  1  0
  6  1  1  0
 10  4  1  0
 21  9  1  0
 20 11  1  0
 17 12  1  0
  1 22  1  0
  2 23  1  0
  3 24  1  0
  6 25  1  0
  7 26  1  0
  8 27  1  0
 13 28  1  0
 14 29  1  0
 15 30  1  0
 16 31  1  0
 18 32  1  0
 19 33  1  0
 21 34  1  0
M  END
>  <SMILES>  (2) 
c1ccc2c(c1)ccc3c2c4c5ccccc5ccc4[nH]3

$$$$
