anycymidol
     RDKit          3D

 35 37  0  0  0  0  0  0  0  0999 V2000
    5.1859   -1.5265    0.2385 C   0  0  0  0  0  0  0  0  0  0  0  0
    4.0173   -2.1863    0.7084 O   0  0  0  0  0  0  0  0  0  0  0  0
    2.8487   -1.4785    0.6707 C   0  0  0  0  0  0  0  0  0  0  0  0
    2.6965   -0.1653    0.2315 C   0  0  0  0  0  0  0  0  0  0  0  0
    1.4348    0.4458    0.2460 C   0  0  0  0  0  0  0  0  0  0  0  0
    0.2978   -0.2381    0.7108 C   0  0  0  0  0  0  0  0  0  0  0  0
    0.4690   -1.5703    1.1337 C   0  0  0  0  0  0  0  0  0  0  0  0
    1.7280   -2.1764    1.1184 C   0  0  0  0  0  0  0  0  0  0  0  0
   -1.1118    0.3864    0.7198 C   0  0  0  0  0  0  0  0  0  0  0  0
   -1.0451    1.9119    0.7532 C   0  0  0  0  0  0  0  0  0  0  0  0
   -1.1711    2.8230   -0.4522 C   0  0  0  0  0  0  0  0  0  0  0  0
   -2.2691    2.7879    0.5742 C   0  0  0  0  0  0  0  0  0  0  0  0
   -1.9847   -0.1591   -0.3915 C   0  0  0  0  0  0  0  0  0  0  0  0
   -3.3165   -0.4891   -0.2090 C   0  0  0  0  0  0  0  0  0  0  0  0
   -4.1289   -0.9595   -1.1805 N   0  0  0  0  0  0  0  0  0  0  0  0
   -3.5658   -1.1045   -2.3869 C   0  0  0  0  0  0  0  0  0  0  0  0
   -2.2937   -0.8231   -2.6994 N   0  0  0  0  0  0  0  0  0  0  0  0
   -1.5327   -0.3589   -1.6853 C   0  0  0  0  0  0  0  0  0  0  0  0
   -1.7118    0.0291    1.9766 O   0  0  0  0  0  0  0  0  0  0  0  0
    5.4170   -0.6492    0.8516 H   0  0  0  0  0  0  0  0  0  0  0  0
    6.0233   -2.2252    0.3283 H   0  0  0  0  0  0  0  0  0  0  0  0
    5.0891   -1.2566   -0.8183 H   0  0  0  0  0  0  0  0  0  0  0  0
    3.5380    0.4141   -0.1346 H   0  0  0  0  0  0  0  0  0  0  0  0
    1.3634    1.4670   -0.1223 H   0  0  0  0  0  0  0  0  0  0  0  0
   -0.3868   -2.1535    1.4730 H   0  0  0  0  0  0  0  0  0  0  0  0
    1.8330   -3.2063    1.4523 H   0  0  0  0  0  0  0  0  0  0  0  0
   -0.3759    2.2424    1.5464 H   0  0  0  0  0  0  0  0  0  0  0  0
   -0.5427    3.7071   -0.4861 H   0  0  0  0  0  0  0  0  0  0  0  0
   -1.3959    2.4205   -1.4320 H   0  0  0  0  0  0  0  0  0  0  0  0
   -3.2154    2.3438    0.2893 H   0  0  0  0  0  0  0  0  0  0  0  0
   -2.3780    3.6430    1.2331 H   0  0  0  0  0  0  0  0  0  0  0  0
   -3.7966   -0.3778    0.7607 H   0  0  0  0  0  0  0  0  0  0  0  0
   -4.1970   -1.4828   -3.1830 H   0  0  0  0  0  0  0  0  0  0  0  0
   -0.5067   -0.1404   -1.9701 H   0  0  0  0  0  0  0  0  0  0  0  0
   -1.0155    0.1053    2.6511 H   0  0  0  0  0  0  0  0  0  0  0  0
  1  2  1  0
  2  3  1  0
  3  4  2  0
  4  5  1  0
  5  6  2  0
  6  7  1  0
  7  8  2  0
  6  9  1  0
  9 10  1  0
 10 11  1  0
 11 12  1  0
  9 13  1  0
 13 14  2  0
 14 15  1  0
 15 16  2  0
 16 17  1  0
 17 18  2  0
  9 19  1  0
  8  3  1  0
 12 10  1  0
 18 13  1  0
  1 20  1  0
  1 21  1  0
  1 22  1  0
  4 23  1  0
  5 24  1  0
  7 25  1  0
  8 26  1  0
 10 27  1  0
 11 28  1  0
 11 29  1  0
 12 30  1  0
 12 31  1  0
 14 32  1  0
 16 33  1  0
 18 34  1  0
 19 35  1  0
M  END
>  <SMILES>  (1) 
COC1=CC=C(C=C1)C(C2CC2)(C3=CN=CN=C3)O

$$$$
anycymidol
     RDKit          3D

 35 37  0  0  0  0  0  0  0  0999 V2000
    5.1172   -0.3116   -0.2447 C   0  0  0  0  0  0  0  0  0  0  0  0
    4.3212    0.0913    0.8624 O   0  0  0  0  0  0  0  0  0  0  0  0
    2.9657    0.0786    0.6857 C   0  0  0  0  0  0  0  0  0  0  0  0
    2.2256    0.4475    1.8078 C   0  0  0  0  0  0  0  0  0  0  0  0
    0.8281    0.4769    1.7653 C   0  0  0  0  0  0  0  0  0  0  0  0
    0.1275    0.1377    0.5945 C   0  0  0  0  0  0  0  0  0  0  0  0
    0.8918   -0.2285   -0.5304 C   0  0  0  0  0  0  0  0  0  0  0  0
    2.2926   -0.2591   -0.4856 C   0  0  0  0  0  0  0  0  0  0  0  0
   -1.4086    0.1761    0.5493 C   0  0  0  0  0  0  0  0  0  0  0  0
   -1.9685    1.4873   -0.0023 C   0  0  0  0  0  0  0  0  0  0  0  0
   -1.2823    2.3717   -1.0240 C   0  0  0  0  0  0  0  0  0  0  0  0
   -1.4183    2.8408    0.3982 C   0  0  0  0  0  0  0  0  0  0  0  0
   -1.9892   -1.0274   -0.1733 C   0  0  0  0  0  0  0  0  0  0  0  0
   -2.5068   -0.9997   -1.4562 C   0  0  0  0  0  0  0  0  0  0  0  0
   -2.9993   -2.0775   -2.1021 N   0  0  0  0  0  0  0  0  0  0  0  0
   -2.9534   -3.2339   -1.4259 C   0  0  0  0  0  0  0  0  0  0  0  0
   -2.4633   -3.4004   -0.1909 N   0  0  0  0  0  0  0  0  0  0  0  0
   -1.9817   -2.2884    0.4026 C   0  0  0  0  0  0  0  0  0  0  0  0
   -1.8986    0.1044    1.8995 O   0  0  0  0  0  0  0  0  0  0  0  0
    4.9860    0.3685   -1.0929 H   0  0  0  0  0  0  0  0  0  0  0  0
    6.1664   -0.2617    0.0622 H   0  0  0  0  0  0  0  0  0  0  0  0
    4.9028   -1.3468   -0.5302 H   0  0  0  0  0  0  0  0  0  0  0  0
    2.7395    0.7139    2.7283 H   0  0  0  0  0  0  0  0  0  0  0  0
    0.2881    0.7712    2.6636 H   0  0  0  0  0  0  0  0  0  0  0  0
    0.4079   -0.4954   -1.4677 H   0  0  0  0  0  0  0  0  0  0  0  0
    2.8234   -0.5514   -1.3855 H   0  0  0  0  0  0  0  0  0  0  0  0
   -3.0558    1.4473   -0.0507 H   0  0  0  0  0  0  0  0  0  0  0  0
   -0.2838    2.1420   -1.3743 H   0  0  0  0  0  0  0  0  0  0  0  0
   -1.9004    2.8544   -1.7739 H   0  0  0  0  0  0  0  0  0  0  0  0
   -0.5191    2.8986    1.0001 H   0  0  0  0  0  0  0  0  0  0  0  0
   -2.1278    3.6342    0.6072 H   0  0  0  0  0  0  0  0  0  0  0  0
   -2.5430   -0.0857   -2.0427 H   0  0  0  0  0  0  0  0  0  0  0  0
   -3.3458   -4.1134   -1.9239 H   0  0  0  0  0  0  0  0  0  0  0  0
   -1.5691   -2.4485    1.3973 H   0  0  0  0  0  0  0  0  0  0  0  0
   -2.8688    0.0870    1.8532 H   0  0  0  0  0  0  0  0  0  0  0  0
  1  2  1  0
  2  3  1  0
  3  4  2  0
  4  5  1  0
  5  6  2  0
  6  7  1  0
  7  8  2  0
  6  9  1  0
  9 10  1  0
 10 11  1  0
 11 12  1  0
  9 13  1  0
 13 14  2  0
 14 15  1  0
 15 16  2  0
 16 17  1  0
 17 18  2  0
  9 19  1  0
  8  3  1  0
 12 10  1  0
 18 13  1  0
  1 20  1  0
  1 21  1  0
  1 22  1  0
  4 23  1  0
  5 24  1  0
  7 25  1  0
  8 26  1  0
 10 27  1  0
 11 28  1  0
 11 29  1  0
 12 30  1  0
 12 31  1  0
 14 32  1  0
 16 33  1  0
 18 34  1  0
 19 35  1  0
M  END
>  <SMILES>  (2) 
COC1=CC=C(C=C1)C(C2CC2)(C3=CN=CN=C3)O

$$$$
anycymidol
     RDKit          3D

 35 37  0  0  0  0  0  0  0  0999 V2000
    5.2236   -0.1308    0.8077 C   0  0  0  0  0  0  0  0  0  0  0  0
    4.0977    0.5050    1.3993 O   0  0  0  0  0  0  0  0  0  0  0  0
    2.8809    0.2704    0.8235 C   0  0  0  0  0  0  0  0  0  0  0  0
    2.6363   -0.5384   -0.2816 C   0  0  0  0  0  0  0  0  0  0  0  0
    1.3310   -0.6900   -0.7688 C   0  0  0  0  0  0  0  0  0  0  0  0
    0.2335   -0.0355   -0.1716 C   0  0  0  0  0  0  0  0  0  0  0  0
    0.5042    0.7650    0.9521 C   0  0  0  0  0  0  0  0  0  0  0  0
    1.8089    0.9168    1.4361 C   0  0  0  0  0  0  0  0  0  0  0  0
   -1.1962   -0.2221   -0.7207 C   0  0  0  0  0  0  0  0  0  0  0  0
   -1.8609   -1.5176   -0.2579 C   0  0  0  0  0  0  0  0  0  0  0  0
   -1.6529   -2.1424    1.1079 C   0  0  0  0  0  0  0  0  0  0  0  0
   -1.1535   -2.8516   -0.1199 C   0  0  0  0  0  0  0  0  0  0  0  0
   -2.1115    0.9627   -0.4397 C   0  0  0  0  0  0  0  0  0  0  0  0
   -2.0839    2.1160   -1.2077 C   0  0  0  0  0  0  0  0  0  0  0  0
   -2.8375    3.2123   -0.9755 N   0  0  0  0  0  0  0  0  0  0  0  0
   -3.6555    3.1397    0.0818 C   0  0  0  0  0  0  0  0  0  0  0  0
   -3.7725    2.0949    0.9118 N   0  0  0  0  0  0  0  0  0  0  0  0
   -2.9927    1.0297    0.6272 C   0  0  0  0  0  0  0  0  0  0  0  0
   -1.1532   -0.3284   -2.1542 O   0  0  0  0  0  0  0  0  0  0  0  0
    5.3672    0.2019   -0.2257 H   0  0  0  0  0  0  0  0  0  0  0  0
    6.1106    0.1615    1.3778 H   0  0  0  0  0  0  0  0  0  0  0  0
    5.1358   -1.2208    0.8640 H   0  0  0  0  0  0  0  0  0  0  0  0
    3.4342   -1.0731   -0.7863 H   0  0  0  0  0  0  0  0  0  0  0  0
    1.1793   -1.3528   -1.6204 H   0  0  0  0  0  0  0  0  0  0  0  0
   -0.2885    1.2898    1.4808 H   0  0  0  0  0  0  0  0  0  0  0  0
    1.9879    1.5472    2.3046 H   0  0  0  0  0  0  0  0  0  0  0  0
   -2.8604   -1.5917   -0.6868 H   0  0  0  0  0  0  0  0  0  0  0  0
   -2.5192   -2.5571    1.6123 H   0  0  0  0  0  0  0  0  0  0  0  0
   -0.9116   -1.7328    1.7841 H   0  0  0  0  0  0  0  0  0  0  0  0
   -1.6890   -3.7370   -0.4474 H   0  0  0  0  0  0  0  0  0  0  0  0
   -0.0832   -2.9310   -0.2491 H   0  0  0  0  0  0  0  0  0  0  0  0
   -1.4265    2.2061   -2.0686 H   0  0  0  0  0  0  0  0  0  0  0  0
   -4.2760    4.0049    0.2864 H   0  0  0  0  0  0  0  0  0  0  0  0
   -3.1061    0.2096    1.3303 H   0  0  0  0  0  0  0  0  0  0  0  0
   -0.3003    0.0195   -2.4576 H   0  0  0  0  0  0  0  0  0  0  0  0
  1  2  1  0
  2  3  1  0
  3  4  2  0
  4  5  1  0
  5  6  2  0
  6  7  1  0
  7  8  2  0
  6  9  1  0
  9 10  1  0
 10 11  1  0
 11 12  1  0
  9 13  1  0
 13 14  2  0
 14 15  1  0
 15 16  2  0
 16 17  1  0
 17 18  2  0
  9 19  1  0
  8  3  1  0
 12 10  1  0
 18 13  1  0
  1 20  1  0
  1 21  1  0
  1 22  1  0
  4 23  1  0
  5 24  1  0
  7 25  1  0
  8 26  1  0
 10 27  1  0
 11 28  1  0
 11 29  1  0
 12 30  1  0
 12 31  1  0
 14 32  1  0
 16 33  1  0
 18 34  1  0
 19 35  1  0
M  END
>  <SMILES>  (3) 
COC1=CC=C(C=C1)C(C2CC2)(C3=CN=CN=C3)O

$$$$
anycymidol
     RDKit          3D

 35 37  0  0  0  0  0  0  0  0999 V2000
    4.6667    1.4529    2.0678 C   0  0  0  0  0  0  0  0  0  0  0  0
    3.3192    1.3328    2.5058 O   0  0  0  0  0  0  0  0  0  0  0  0
    2.4095    0.8883    1.5871 C   0  0  0  0  0  0  0  0  0  0  0  0
    2.6726    0.5685    0.2581 C   0  0  0  0  0  0  0  0  0  0  0  0
    1.6399    0.1235   -0.5779 C   0  0  0  0  0  0  0  0  0  0  0  0
    0.3195   -0.0148   -0.1104 C   0  0  0  0  0  0  0  0  0  0  0  0
    0.0751    0.3158    1.2349 C   0  0  0  0  0  0  0  0  0  0  0  0
    1.1072    0.7600    2.0682 C   0  0  0  0  0  0  0  0  0  0  0  0
   -0.8057   -0.4985   -1.0391 C   0  0  0  0  0  0  0  0  0  0  0  0
   -1.6057    0.6407   -1.6709 C   0  0  0  0  0  0  0  0  0  0  0  0
   -1.8467    1.9973   -1.0398 C   0  0  0  0  0  0  0  0  0  0  0  0
   -0.9474    1.8811   -2.2394 C   0  0  0  0  0  0  0  0  0  0  0  0
   -1.7134   -1.5096   -0.3599 C   0  0  0  0  0  0  0  0  0  0  0  0
   -2.9833   -1.2320    0.1142 C   0  0  0  0  0  0  0  0  0  0  0  0
   -3.7771   -2.1295    0.7352 N   0  0  0  0  0  0  0  0  0  0  0  0
   -3.2574   -3.3544    0.8969 C   0  0  0  0  0  0  0  0  0  0  0  0
   -2.0394   -3.7471    0.5028 N   0  0  0  0  0  0  0  0  0  0  0  0
   -1.2906   -2.8057   -0.1086 C   0  0  0  0  0  0  0  0  0  0  0  0
   -0.2042   -1.1857   -2.1507 O   0  0  0  0  0  0  0  0  0  0  0  0
    5.0691    0.4834    1.7560 H   0  0  0  0  0  0  0  0  0  0  0  0
    4.7568    2.1950    1.2677 H   0  0  0  0  0  0  0  0  0  0  0  0
    5.2635    1.8037    2.9153 H   0  0  0  0  0  0  0  0  0  0  0  0
    3.6676    0.6521   -0.1657 H   0  0  0  0  0  0  0  0  0  0  0  0
    1.8797   -0.1161   -1.6130 H   0  0  0  0  0  0  0  0  0  0  0  0
   -0.9234    0.2370    1.6589 H   0  0  0  0  0  0  0  0  0  0  0  0
    0.8914    1.0073    3.1051 H   0  0  0  0  0  0  0  0  0  0  0  0
   -2.4122    0.2446   -2.2864 H   0  0  0  0  0  0  0  0  0  0  0  0
   -2.8189    2.4577   -1.1824 H   0  0  0  0  0  0  0  0  0  0  0  0
   -1.3820    2.2609   -0.0978 H   0  0  0  0  0  0  0  0  0  0  0  0
    0.1141    2.0413   -2.0927 H   0  0  0  0  0  0  0  0  0  0  0  0
   -1.3132    2.2588   -3.1881 H   0  0  0  0  0  0  0  0  0  0  0  0
   -3.4300   -0.2460    0.0203 H   0  0  0  0  0  0  0  0  0  0  0  0
   -3.8775   -4.0926    1.3930 H   0  0  0  0  0  0  0  0  0  0  0  0
   -0.2964   -3.1383   -0.4015 H   0  0  0  0  0  0  0  0  0  0  0  0
   -0.9275   -1.5327   -2.6988 H   0  0  0  0  0  0  0  0  0  0  0  0
  1  2  1  0
  2  3  1  0
  3  4  2  0
  4  5  1  0
  5  6  2  0
  6  7  1  0
  7  8  2  0
  6  9  1  0
  9 10  1  0
 10 11  1  0
 11 12  1  0
  9 13  1  0
 13 14  2  0
 14 15  1  0
 15 16  2  0
 16 17  1  0
 17 18  2  0
  9 19  1  0
  8  3  1  0
 12 10  1  0
 18 13  1  0
  1 20  1  0
  1 21  1  0
  1 22  1  0
  4 23  1  0
  5 24  1  0
  7 25  1  0
  8 26  1  0
 10 27  1  0
 11 28  1  0
 11 29  1  0
 12 30  1  0
 12 31  1  0
 14 32  1  0
 16 33  1  0
 18 34  1  0
 19 35  1  0
M  END
>  <SMILES>  (4) 
COC1=CC=C(C=C1)C(C2CC2)(C3=CN=CN=C3)O

$$$$
anycymidol
     RDKit          3D

 35 37  0  0  0  0  0  0  0  0999 V2000
   -5.0515   -0.6277   -0.5740 C   0  0  0  0  0  0  0  0  0  0  0  0
   -4.3581    0.2650    0.2890 O   0  0  0  0  0  0  0  0  0  0  0  0
   -2.9928    0.2120    0.2651 C   0  0  0  0  0  0  0  0  0  0  0  0
   -2.3576    1.0959    1.1344 C   0  0  0  0  0  0  0  0  0  0  0  0
   -0.9619    1.1443    1.2118 C   0  0  0  0  0  0  0  0  0  0  0  0
   -0.1537    0.3019    0.4233 C   0  0  0  0  0  0  0  0  0  0  0  0
   -0.8158   -0.5723   -0.4596 C   0  0  0  0  0  0  0  0  0  0  0  0
   -2.2156   -0.6205   -0.5347 C   0  0  0  0  0  0  0  0  0  0  0  0
    1.3855    0.3656    0.5144 C   0  0  0  0  0  0  0  0  0  0  0  0
    1.9946    1.5147   -0.2872 C   0  0  0  0  0  0  0  0  0  0  0  0
    1.4472    2.0174   -1.6087 C   0  0  0  0  0  0  0  0  0  0  0  0
    1.3986    2.9045   -0.3962 C   0  0  0  0  0  0  0  0  0  0  0  0
    2.0655   -0.9468    0.1450 C   0  0  0  0  0  0  0  0  0  0  0  0
    2.1525   -2.0073    1.0331 C   0  0  0  0  0  0  0  0  0  0  0  0
    2.6974   -3.2086    0.7440 N   0  0  0  0  0  0  0  0  0  0  0  0
    3.1766   -3.3436   -0.4987 C   0  0  0  0  0  0  0  0  0  0  0  0
    3.1458   -2.4077   -1.4566 N   0  0  0  0  0  0  0  0  0  0  0  0
    2.5885   -1.2284   -1.1063 C   0  0  0  0  0  0  0  0  0  0  0  0
    1.7837    0.6189    1.8725 O   0  0  0  0  0  0  0  0  0  0  0  0
   -4.8344   -1.6707   -0.3206 H   0  0  0  0  0  0  0  0  0  0  0  0
   -4.8216   -0.4193   -1.6242 H   0  0  0  0  0  0  0  0  0  0  0  0
   -6.1241   -0.4665   -0.4298 H   0  0  0  0  0  0  0  0  0  0  0  0
   -2.9545    1.7605    1.7551 H   0  0  0  0  0  0  0  0  0  0  0  0
   -0.5138    1.8707    1.8883 H   0  0  0  0  0  0  0  0  0  0  0  0
   -0.2593   -1.2401   -1.1142 H   0  0  0  0  0  0  0  0  0  0  0  0
   -2.6621   -1.3213   -1.2329 H   0  0  0  0  0  0  0  0  0  0  0  0
    3.0787    1.5087   -0.1727 H   0  0  0  0  0  0  0  0  0  0  0  0
    0.5054    1.6364   -1.9857 H   0  0  0  0  0  0  0  0  0  0  0  0
    2.1581    2.2690   -2.3887 H   0  0  0  0  0  0  0  0  0  0  0  0
    0.4260    3.1284    0.0195 H   0  0  0  0  0  0  0  0  0  0  0  0
    2.0828    3.7461   -0.3550 H   0  0  0  0  0  0  0  0  0  0  0  0
    1.7683   -1.9278    2.0469 H   0  0  0  0  0  0  0  0  0  0  0  0
    3.6263   -4.2966   -0.7536 H   0  0  0  0  0  0  0  0  0  0  0  0
    2.5714   -0.5009   -1.9127 H   0  0  0  0  0  0  0  0  0  0  0  0
    1.0240    0.4465    2.4499 H   0  0  0  0  0  0  0  0  0  0  0  0
  1  2  1  0
  2  3  1  0
  3  4  2  0
  4  5  1  0
  5  6  2  0
  6  7  1  0
  7  8  2  0
  6  9  1  0
  9 10  1  0
 10 11  1  0
 11 12  1  0
  9 13  1  0
 13 14  2  0
 14 15  1  0
 15 16  2  0
 16 17  1  0
 17 18  2  0
  9 19  1  0
  8  3  1  0
 12 10  1  0
 18 13  1  0
  1 20  1  0
  1 21  1  0
  1 22  1  0
  4 23  1  0
  5 24  1  0
  7 25  1  0
  8 26  1  0
 10 27  1  0
 11 28  1  0
 11 29  1  0
 12 30  1  0
 12 31  1  0
 14 32  1  0
 16 33  1  0
 18 34  1  0
 19 35  1  0
M  END
>  <SMILES>  (5) 
COC1=CC=C(C=C1)C(C2CC2)(C3=CN=CN=C3)O

$$$$
anycymidol
     RDKit          3D

 35 37  0  0  0  0  0  0  0  0999 V2000
    5.2530   -0.7692   -1.0325 C   0  0  0  0  0  0  0  0  0  0  0  0
    4.4895   -1.0731    0.1279 O   0  0  0  0  0  0  0  0  0  0  0  0
    3.2026   -0.6137    0.1607 C   0  0  0  0  0  0  0  0  0  0  0  0
    2.5728    0.1389   -0.8279 C   0  0  0  0  0  0  0  0  0  0  0  0
    1.2415    0.5484   -0.6675 C   0  0  0  0  0  0  0  0  0  0  0  0
    0.5127    0.2245    0.4903 C   0  0  0  0  0  0  0  0  0  0  0  0
    1.1611   -0.5520    1.4697 C   0  0  0  0  0  0  0  0  0  0  0  0
    2.4882   -0.9583    1.3071 C   0  0  0  0  0  0  0  0  0  0  0  0
   -0.9600    0.6317    0.6961 C   0  0  0  0  0  0  0  0  0  0  0  0
   -1.3221    1.8557   -0.1426 C   0  0  0  0  0  0  0  0  0  0  0  0
   -2.7454    2.3569   -0.2857 C   0  0  0  0  0  0  0  0  0  0  0  0
   -2.0189    1.8229   -1.4889 C   0  0  0  0  0  0  0  0  0  0  0  0
   -1.9066   -0.5356    0.5069 C   0  0  0  0  0  0  0  0  0  0  0  0
   -2.9907   -0.7673    1.3358 C   0  0  0  0  0  0  0  0  0  0  0  0
   -3.8655   -1.7857    1.1858 N   0  0  0  0  0  0  0  0  0  0  0  0
   -3.6286   -2.6058    0.1538 C   0  0  0  0  0  0  0  0  0  0  0  0
   -2.6205   -2.4961   -0.7218 N   0  0  0  0  0  0  0  0  0  0  0  0
   -1.7799   -1.4595   -0.5171 C   0  0  0  0  0  0  0  0  0  0  0  0
   -1.0750    1.0855    2.0555 O   0  0  0  0  0  0  0  0  0  0  0  0
    5.3812    0.3121   -1.1483 H   0  0  0  0  0  0  0  0  0  0  0  0
    4.8046   -1.2128   -1.9276 H   0  0  0  0  0  0  0  0  0  0  0  0
    6.2462   -1.2103   -0.9043 H   0  0  0  0  0  0  0  0  0  0  0  0
    3.0856    0.4227   -1.7413 H   0  0  0  0  0  0  0  0  0  0  0  0
    0.7879    1.1203   -1.4741 H   0  0  0  0  0  0  0  0  0  0  0  0
    0.6290   -0.8562    2.3709 H   0  0  0  0  0  0  0  0  0  0  0  0
    2.9661   -1.5560    2.0800 H   0  0  0  0  0  0  0  0  0  0  0  0
   -0.5872    2.6455    0.0070 H   0  0  0  0  0  0  0  0  0  0  0  0
   -3.5672    1.7727    0.1107 H   0  0  0  0  0  0  0  0  0  0  0  0
   -2.9118    3.4272   -0.2246 H   0  0  0  0  0  0  0  0  0  0  0  0
   -2.3740    0.8899   -1.9083 H   0  0  0  0  0  0  0  0  0  0  0  0
   -1.6998    2.5369   -2.2412 H   0  0  0  0  0  0  0  0  0  0  0  0
   -3.2050   -0.1140    2.1787 H   0  0  0  0  0  0  0  0  0  0  0  0
   -4.3157   -3.4326    0.0137 H   0  0  0  0  0  0  0  0  0  0  0  0
   -0.9733   -1.3979   -1.2430 H   0  0  0  0  0  0  0  0  0  0  0  0
   -0.2749    1.6041    2.2463 H   0  0  0  0  0  0  0  0  0  0  0  0
  1  2  1  0
  2  3  1  0
  3  4  2  0
  4  5  1  0
  5  6  2  0
  6  7  1  0
  7  8  2  0
  6  9  1  0
  9 10  1  0
 10 11  1  0
 11 12  1  0
  9 13  1  0
 13 14  2  0
 14 15  1  0
 15 16  2  0
 16 17  1  0
 17 18  2  0
  9 19  1  0
  8  3  1  0
 12 10  1  0
 18 13  1  0
  1 20  1  0
  1 21  1  0
  1 22  1  0
  4 23  1  0
  5 24  1  0
  7 25  1  0
  8 26  1  0
 10 27  1  0
 11 28  1  0
 11 29  1  0
 12 30  1  0
 12 31  1  0
 14 32  1  0
 16 33  1  0
 18 34  1  0
 19 35  1  0
M  END
>  <SMILES>  (6) 
COC1=CC=C(C=C1)C(C2CC2)(C3=CN=CN=C3)O

$$$$
anycymidol
     RDKit          3D

 35 37  0  0  0  0  0  0  0  0999 V2000
    5.2724    1.4694    0.4820 C   0  0  0  0  0  0  0  0  0  0  0  0
    4.5642    0.5663   -0.3576 O   0  0  0  0  0  0  0  0  0  0  0  0
    3.2464    0.3537   -0.0637 C   0  0  0  0  0  0  0  0  0  0  0  0
    2.5991   -0.5525   -0.9016 C   0  0  0  0  0  0  0  0  0  0  0  0
    1.2476   -0.8632   -0.7156 C   0  0  0  0  0  0  0  0  0  0  0  0
    0.5025   -0.2796    0.3256 C   0  0  0  0  0  0  0  0  0  0  0  0
    1.1715    0.6440    1.1533 C   0  0  0  0  0  0  0  0  0  0  0  0
    2.5259    0.9534    0.9649 C   0  0  0  0  0  0  0  0  0  0  0  0
   -1.0024   -0.5719    0.5224 C   0  0  0  0  0  0  0  0  0  0  0  0
   -1.3268   -1.9937    0.0691 C   0  0  0  0  0  0  0  0  0  0  0  0
   -2.7339   -2.5427   -0.0658 C   0  0  0  0  0  0  0  0  0  0  0  0
   -1.8845   -2.3606   -1.2926 C   0  0  0  0  0  0  0  0  0  0  0  0
   -1.8941    0.4845   -0.1082 C   0  0  0  0  0  0  0  0  0  0  0  0
   -1.5536    1.2055   -1.2406 C   0  0  0  0  0  0  0  0  0  0  0  0
   -2.3417    2.1381   -1.8183 N   0  0  0  0  0  0  0  0  0  0  0  0
   -3.5261    2.3482   -1.2303 C   0  0  0  0  0  0  0  0  0  0  0  0
   -3.9811    1.7161   -0.1413 N   0  0  0  0  0  0  0  0  0  0  0  0
   -3.1520    0.7915    0.3860 C   0  0  0  0  0  0  0  0  0  0  0  0
   -1.2177   -0.5949    1.9437 O   0  0  0  0  0  0  0  0  0  0  0  0
    5.2965    1.1110    1.5165 H   0  0  0  0  0  0  0  0  0  0  0  0
    6.3049    1.5196    0.1231 H   0  0  0  0  0  0  0  0  0  0  0  0
    4.8497    2.4777    0.4220 H   0  0  0  0  0  0  0  0  0  0  0  0
    3.1517   -1.0228   -1.7120 H   0  0  0  0  0  0  0  0  0  0  0  0
    0.7920   -1.5679   -1.4071 H   0  0  0  0  0  0  0  0  0  0  0  0
    0.6471    1.1408    1.9662 H   0  0  0  0  0  0  0  0  0  0  0  0
    2.9828    1.6686    1.6409 H   0  0  0  0  0  0  0  0  0  0  0  0
   -0.6227   -2.6928    0.5204 H   0  0  0  0  0  0  0  0  0  0  0  0
   -2.9105   -3.5549    0.2841 H   0  0  0  0  0  0  0  0  0  0  0  0
   -3.5942   -1.8977    0.0512 H   0  0  0  0  0  0  0  0  0  0  0  0
   -2.1752   -1.5859   -1.9919 H   0  0  0  0  0  0  0  0  0  0  0  0
   -1.4953   -3.2523   -1.7732 H   0  0  0  0  0  0  0  0  0  0  0  0
   -0.6057    1.0611   -1.7525 H   0  0  0  0  0  0  0  0  0  0  0  0
   -4.1739    3.0945   -1.6761 H   0  0  0  0  0  0  0  0  0  0  0  0
   -3.5578    0.2779    1.2554 H   0  0  0  0  0  0  0  0  0  0  0  0
   -1.4052    0.3113    2.2342 H   0  0  0  0  0  0  0  0  0  0  0  0
  1  2  1  0
  2  3  1  0
  3  4  2  0
  4  5  1  0
  5  6  2  0
  6  7  1  0
  7  8  2  0
  6  9  1  0
  9 10  1  0
 10 11  1  0
 11 12  1  0
  9 13  1  0
 13 14  2  0
 14 15  1  0
 15 16  2  0
 16 17  1  0
 17 18  2  0
  9 19  1  0
  8  3  1  0
 12 10  1  0
 18 13  1  0
  1 20  1  0
  1 21  1  0
  1 22  1  0
  4 23  1  0
  5 24  1  0
  7 25  1  0
  8 26  1  0
 10 27  1  0
 11 28  1  0
 11 29  1  0
 12 30  1  0
 12 31  1  0
 14 32  1  0
 16 33  1  0
 18 34  1  0
 19 35  1  0
M  END
>  <SMILES>  (7) 
COC1=CC=C(C=C1)C(C2CC2)(C3=CN=CN=C3)O

$$$$
anycymidol
     RDKit          3D

 35 37  0  0  0  0  0  0  0  0999 V2000
    5.3155    0.9684    0.1861 C   0  0  0  0  0  0  0  0  0  0  0  0
    4.5421   -0.1224   -0.2985 O   0  0  0  0  0  0  0  0  0  0  0  0
    3.1984   -0.0849   -0.0510 C   0  0  0  0  0  0  0  0  0  0  0  0
    2.5201    0.9037    0.6554 C   0  0  0  0  0  0  0  0  0  0  0  0
    1.1344    0.8131    0.8338 C   0  0  0  0  0  0  0  0  0  0  0  0
    0.3894   -0.2642    0.3095 C   0  0  0  0  0  0  0  0  0  0  0  0
    1.0921   -1.2520   -0.3964 C   0  0  0  0  0  0  0  0  0  0  0  0
    2.4777   -1.1597   -0.5718 C   0  0  0  0  0  0  0  0  0  0  0  0
   -1.1308   -0.2990    0.5407 C   0  0  0  0  0  0  0  0  0  0  0  0
   -1.7820   -1.5722    0.0086 C   0  0  0  0  0  0  0  0  0  0  0  0
   -3.0488   -2.1332    0.6225 C   0  0  0  0  0  0  0  0  0  0  0  0
   -1.7562   -2.8860    0.7646 C   0  0  0  0  0  0  0  0  0  0  0  0
   -1.8519    0.8798   -0.0814 C   0  0  0  0  0  0  0  0  0  0  0  0
   -1.5870    1.3342   -1.3627 C   0  0  0  0  0  0  0  0  0  0  0  0
   -2.2313    2.3609   -1.9559 N   0  0  0  0  0  0  0  0  0  0  0  0
   -3.1866    2.9474   -1.2212 C   0  0  0  0  0  0  0  0  0  0  0  0
   -3.5469    2.6008    0.0218 N   0  0  0  0  0  0  0  0  0  0  0  0
   -2.8673    1.5654    0.5607 C   0  0  0  0  0  0  0  0  0  0  0  0
   -1.3190   -0.2582    1.9634 O   0  0  0  0  0  0  0  0  0  0  0  0
    4.9958    1.9121   -0.2681 H   0  0  0  0  0  0  0  0  0  0  0  0
    6.3563    0.7951   -0.1040 H   0  0  0  0  0  0  0  0  0  0  0  0
    5.2791    1.0225    1.2792 H   0  0  0  0  0  0  0  0  0  0  0  0
    3.0336    1.7593    1.0813 H   0  0  0  0  0  0  0  0  0  0  0  0
    0.6291    1.6023    1.3916 H   0  0  0  0  0  0  0  0  0  0  0  0
    0.5883   -2.1140   -0.8258 H   0  0  0  0  0  0  0  0  0  0  0  0
    3.0016   -1.9373   -1.1237 H   0  0  0  0  0  0  0  0  0  0  0  0
   -1.7237   -1.6317   -1.0759 H   0  0  0  0  0  0  0  0  0  0  0  0
   -3.4595   -1.6595    1.5076 H   0  0  0  0  0  0  0  0  0  0  0  0
   -3.8018   -2.5319   -0.0484 H   0  0  0  0  0  0  0  0  0  0  0  0
   -1.6381   -3.7989    0.1910 H   0  0  0  0  0  0  0  0  0  0  0  0
   -1.3054   -2.9279    1.7489 H   0  0  0  0  0  0  0  0  0  0  0  0
   -0.8215    0.8732   -1.9824 H   0  0  0  0  0  0  0  0  0  0  0  0
   -3.7175    3.7769   -1.6745 H   0  0  0  0  0  0  0  0  0  0  0  0
   -3.1830    1.2949    1.5657 H   0  0  0  0  0  0  0  0  0  0  0  0
   -0.5951   -0.7772    2.3530 H   0  0  0  0  0  0  0  0  0  0  0  0
  1  2  1  0
  2  3  1  0
  3  4  2  0
  4  5  1  0
  5  6  2  0
  6  7  1  0
  7  8  2  0
  6  9  1  0
  9 10  1  0
 10 11  1  0
 11 12  1  0
  9 13  1  0
 13 14  2  0
 14 15  1  0
 15 16  2  0
 16 17  1  0
 17 18  2  0
  9 19  1  0
  8  3  1  0
 12 10  1  0
 18 13  1  0
  1 20  1  0
  1 21  1  0
  1 22  1  0
  4 23  1  0
  5 24  1  0
  7 25  1  0
  8 26  1  0
 10 27  1  0
 11 28  1  0
 11 29  1  0
 12 30  1  0
 12 31  1  0
 14 32  1  0
 16 33  1  0
 18 34  1  0
 19 35  1  0
M  END
>  <SMILES>  (8) 
COC1=CC=C(C=C1)C(C2CC2)(C3=CN=CN=C3)O

$$$$
anycymidol
     RDKit          3D

 35 37  0  0  0  0  0  0  0  0999 V2000
    4.7459   -2.2225    1.2823 C   0  0  0  0  0  0  0  0  0  0  0  0
    3.4432   -2.3777    1.8308 O   0  0  0  0  0  0  0  0  0  0  0  0
    2.4216   -1.7317    1.1931 C   0  0  0  0  0  0  0  0  0  0  0  0
    1.1704   -1.8876    1.7864 C   0  0  0  0  0  0  0  0  0  0  0  0
    0.0397   -1.2793    1.2350 C   0  0  0  0  0  0  0  0  0  0  0  0
    0.1286   -0.4935    0.0688 C   0  0  0  0  0  0  0  0  0  0  0  0
    1.3967   -0.3489   -0.5176 C   0  0  0  0  0  0  0  0  0  0  0  0
    2.5301   -0.9605    0.0383 C   0  0  0  0  0  0  0  0  0  0  0  0
   -1.1503    0.1525   -0.4913 C   0  0  0  0  0  0  0  0  0  0  0  0
   -0.9175    0.8666   -1.8201 C   0  0  0  0  0  0  0  0  0  0  0  0
   -2.0207    1.0128   -2.8485 C   0  0  0  0  0  0  0  0  0  0  0  0
   -0.8399    0.1317   -3.1436 C   0  0  0  0  0  0  0  0  0  0  0  0
   -1.7771    1.1509    0.4610 C   0  0  0  0  0  0  0  0  0  0  0  0
   -1.0401    2.0979    1.1524 C   0  0  0  0  0  0  0  0  0  0  0  0
   -1.5710    3.0235    1.9784 N   0  0  0  0  0  0  0  0  0  0  0  0
   -2.9048    2.9883    2.1068 C   0  0  0  0  0  0  0  0  0  0  0  0
   -3.7317    2.1333    1.4906 N   0  0  0  0  0  0  0  0  0  0  0  0
   -3.1411    1.2328    0.6751 C   0  0  0  0  0  0  0  0  0  0  0  0
   -2.0786   -0.9191   -0.7156 O   0  0  0  0  0  0  0  0  0  0  0  0
    5.0572   -1.1725    1.2949 H   0  0  0  0  0  0  0  0  0  0  0  0
    5.4427   -2.7839    1.9121 H   0  0  0  0  0  0  0  0  0  0  0  0
    4.8005   -2.6401    0.2714 H   0  0  0  0  0  0  0  0  0  0  0  0
    1.0728   -2.4865    2.6891 H   0  0  0  0  0  0  0  0  0  0  0  0
   -0.9220   -1.4217    1.7282 H   0  0  0  0  0  0  0  0  0  0  0  0
    1.5384    0.2406   -1.4202 H   0  0  0  0  0  0  0  0  0  0  0  0
    3.4829   -0.8125   -0.4601 H   0  0  0  0  0  0  0  0  0  0  0  0
   -0.2723    1.7343   -1.7036 H   0  0  0  0  0  0  0  0  0  0  0  0
   -2.9770    0.5346   -2.6667 H   0  0  0  0  0  0  0  0  0  0  0  0
   -2.0984    1.9575   -3.3750 H   0  0  0  0  0  0  0  0  0  0  0  0
   -0.1209    0.4807   -3.8765 H   0  0  0  0  0  0  0  0  0  0  0  0
   -1.0075   -0.9384   -3.1713 H   0  0  0  0  0  0  0  0  0  0  0  0
    0.0422    2.1517    1.0636 H   0  0  0  0  0  0  0  0  0  0  0  0
   -3.3561    3.7197    2.7678 H   0  0  0  0  0  0  0  0  0  0  0  0
   -3.8319    0.5556    0.1784 H   0  0  0  0  0  0  0  0  0  0  0  0
   -1.5539   -1.6885   -0.9944 H   0  0  0  0  0  0  0  0  0  0  0  0
  1  2  1  0
  2  3  1  0
  3  4  2  0
  4  5  1  0
  5  6  2  0
  6  7  1  0
  7  8  2  0
  6  9  1  0
  9 10  1  0
 10 11  1  0
 11 12  1  0
  9 13  1  0
 13 14  2  0
 14 15  1  0
 15 16  2  0
 16 17  1  0
 17 18  2  0
  9 19  1  0
  8  3  1  0
 12 10  1  0
 18 13  1  0
  1 20  1  0
  1 21  1  0
  1 22  1  0
  4 23  1  0
  5 24  1  0
  7 25  1  0
  8 26  1  0
 10 27  1  0
 11 28  1  0
 11 29  1  0
 12 30  1  0
 12 31  1  0
 14 32  1  0
 16 33  1  0
 18 34  1  0
 19 35  1  0
M  END
>  <SMILES>  (9) 
COC1=CC=C(C=C1)C(C2CC2)(C3=CN=CN=C3)O

$$$$
anycymidol
     RDKit          3D

 35 37  0  0  0  0  0  0  0  0999 V2000
    4.9723   -2.2423    0.3775 C   0  0  0  0  0  0  0  0  0  0  0  0
    4.4516   -1.0911   -0.2754 O   0  0  0  0  0  0  0  0  0  0  0  0
    3.1626   -0.7441    0.0188 C   0  0  0  0  0  0  0  0  0  0  0  0
    2.3196   -1.3969    0.9138 C   0  0  0  0  0  0  0  0  0  0  0  0
    1.0157   -0.9298    1.1193 C   0  0  0  0  0  0  0  0  0  0  0  0
    0.5240    0.2057    0.4436 C   0  0  0  0  0  0  0  0  0  0  0  0
    1.3835    0.8402   -0.4675 C   0  0  0  0  0  0  0  0  0  0  0  0
    2.6865    0.3723   -0.6690 C   0  0  0  0  0  0  0  0  0  0  0  0
   -0.9285    0.6622    0.6842 C   0  0  0  0  0  0  0  0  0  0  0  0
   -1.1247    2.1286    0.3063 C   0  0  0  0  0  0  0  0  0  0  0  0
   -2.4902    2.7845    0.2546 C   0  0  0  0  0  0  0  0  0  0  0  0
   -1.6903    2.6278   -1.0088 C   0  0  0  0  0  0  0  0  0  0  0  0
   -1.9329   -0.2710    0.0402 C   0  0  0  0  0  0  0  0  0  0  0  0
   -1.7769   -0.7947   -1.2325 C   0  0  0  0  0  0  0  0  0  0  0  0
   -2.6639   -1.6134   -1.8373 N   0  0  0  0  0  0  0  0  0  0  0  0
   -3.7531   -1.9192   -1.1195 C   0  0  0  0  0  0  0  0  0  0  0  0
   -4.0261   -1.4847    0.1176 N   0  0  0  0  0  0  0  0  0  0  0  0
   -3.1013   -0.6677    0.6674 C   0  0  0  0  0  0  0  0  0  0  0  0
   -1.1347    0.6289    2.1069 O   0  0  0  0  0  0  0  0  0  0  0  0
    5.0058   -2.0989    1.4626 H   0  0  0  0  0  0  0  0  0  0  0  0
    4.4010   -3.1384    0.1138 H   0  0  0  0  0  0  0  0  0  0  0  0
    5.9995   -2.3880    0.0293 H   0  0  0  0  0  0  0  0  0  0  0  0
    2.6385   -2.2752    1.4652 H   0  0  0  0  0  0  0  0  0  0  0  0
    0.3723   -1.4709    1.8136 H   0  0  0  0  0  0  0  0  0  0  0  0
    1.0600    1.7035   -1.0441 H   0  0  0  0  0  0  0  0  0  0  0  0
    3.3367    0.8818   -1.3771 H   0  0  0  0  0  0  0  0  0  0  0  0
   -0.3544    2.7437    0.7694 H   0  0  0  0  0  0  0  0  0  0  0  0
   -2.5880    3.7799    0.6749 H   0  0  0  0  0  0  0  0  0  0  0  0
   -3.3843    2.1829    0.3659 H   0  0  0  0  0  0  0  0  0  0  0  0
   -2.0660    1.9346   -1.7510 H   0  0  0  0  0  0  0  0  0  0  0  0
   -1.2518    3.5215   -1.4409 H   0  0  0  0  0  0  0  0  0  0  0  0
   -0.9054   -0.5643   -1.8401 H   0  0  0  0  0  0  0  0  0  0  0  0
   -4.4797   -2.5775   -1.5821 H   0  0  0  0  0  0  0  0  0  0  0  0
   -3.3464   -0.3256    1.6704 H   0  0  0  0  0  0  0  0  0  0  0  0
   -0.3308    0.9957    2.5130 H   0  0  0  0  0  0  0  0  0  0  0  0
  1  2  1  0
  2  3  1  0
  3  4  2  0
  4  5  1  0
  5  6  2  0
  6  7  1  0
  7  8  2  0
  6  9  1  0
  9 10  1  0
 10 11  1  0
 11 12  1  0
  9 13  1  0
 13 14  2  0
 14 15  1  0
 15 16  2  0
 16 17  1  0
 17 18  2  0
  9 19  1  0
  8  3  1  0
 12 10  1  0
 18 13  1  0
  1 20  1  0
  1 21  1  0
  1 22  1  0
  4 23  1  0
  5 24  1  0
  7 25  1  0
  8 26  1  0
 10 27  1  0
 11 28  1  0
 11 29  1  0
 12 30  1  0
 12 31  1  0
 14 32  1  0
 16 33  1  0
 18 34  1  0
 19 35  1  0
M  END
>  <SMILES>  (10) 
COC1=CC=C(C=C1)C(C2CC2)(C3=CN=CN=C3)O

$$$$
anycymidol
     RDKit          3D

 35 37  0  0  0  0  0  0  0  0999 V2000
    5.1406    0.5742   -1.5327 C   0  0  0  0  0  0  0  0  0  0  0  0
    3.9173    0.6849   -2.2490 O   0  0  0  0  0  0  0  0  0  0  0  0
    2.7727    0.3733   -1.5705 C   0  0  0  0  0  0  0  0  0  0  0  0
    1.5965    0.5437   -2.2981 C   0  0  0  0  0  0  0  0  0  0  0  0
    0.3552    0.2596   -1.7230 C   0  0  0  0  0  0  0  0  0  0  0  0
    0.2542   -0.2061   -0.3968 C   0  0  0  0  0  0  0  0  0  0  0  0
    1.4494   -0.3743    0.3215 C   0  0  0  0  0  0  0  0  0  0  0  0
    2.6941   -0.0874   -0.2583 C   0  0  0  0  0  0  0  0  0  0  0  0
   -1.1398   -0.5039    0.1823 C   0  0  0  0  0  0  0  0  0  0  0  0
   -1.0797   -1.1147    1.5798 C   0  0  0  0  0  0  0  0  0  0  0  0
   -0.7857   -2.5822    1.8202 C   0  0  0  0  0  0  0  0  0  0  0  0
   -2.1626   -2.0442    2.0895 C   0  0  0  0  0  0  0  0  0  0  0  0
   -2.0275    0.7219    0.2562 C   0  0  0  0  0  0  0  0  0  0  0  0
   -3.3714    0.6980   -0.0707 C   0  0  0  0  0  0  0  0  0  0  0  0
   -4.1961    1.7641    0.0173 N   0  0  0  0  0  0  0  0  0  0  0  0
   -3.6350    2.8970    0.4604 C   0  0  0  0  0  0  0  0  0  0  0  0
   -2.3533    3.0516    0.8208 N   0  0  0  0  0  0  0  0  0  0  0  0
   -1.5795    1.9515    0.7097 C   0  0  0  0  0  0  0  0  0  0  0  0
   -1.7466   -1.4612   -0.6988 O   0  0  0  0  0  0  0  0  0  0  0  0
    5.1554    1.2484   -0.6696 H   0  0  0  0  0  0  0  0  0  0  0  0
    5.3277   -0.4613   -1.2297 H   0  0  0  0  0  0  0  0  0  0  0  0
    5.9505    0.8753   -2.2044 H   0  0  0  0  0  0  0  0  0  0  0  0
    1.6447    0.9038   -3.3235 H   0  0  0  0  0  0  0  0  0  0  0  0
   -0.5434    0.4072   -2.3222 H   0  0  0  0  0  0  0  0  0  0  0  0
    1.4466   -0.7331    1.3478 H   0  0  0  0  0  0  0  0  0  0  0  0
    3.5827   -0.2384    0.3460 H   0  0  0  0  0  0  0  0  0  0  0  0
   -0.6889   -0.4107    2.3108 H   0  0  0  0  0  0  0  0  0  0  0  0
   -0.1704   -2.8437    2.6743 H   0  0  0  0  0  0  0  0  0  0  0  0
   -0.6649   -3.2484    0.9743 H   0  0  0  0  0  0  0  0  0  0  0  0
   -2.4766   -1.9355    3.1217 H   0  0  0  0  0  0  0  0  0  0  0  0
   -2.9623   -2.3394    1.4187 H   0  0  0  0  0  0  0  0  0  0  0  0
   -3.8497   -0.2121   -0.4247 H   0  0  0  0  0  0  0  0  0  0  0  0
   -4.2770    3.7675    0.5364 H   0  0  0  0  0  0  0  0  0  0  0  0
   -0.5468    2.1036    1.0138 H   0  0  0  0  0  0  0  0  0  0  0  0
   -1.0303   -2.0291   -1.0293 H   0  0  0  0  0  0  0  0  0  0  0  0
  1  2  1  0
  2  3  1  0
  3  4  2  0
  4  5  1  0
  5  6  2  0
  6  7  1  0
  7  8  2  0
  6  9  1  0
  9 10  1  0
 10 11  1  0
 11 12  1  0
  9 13  1  0
 13 14  2  0
 14 15  1  0
 15 16  2  0
 16 17  1  0
 17 18  2  0
  9 19  1  0
  8  3  1  0
 12 10  1  0
 18 13  1  0
  1 20  1  0
  1 21  1  0
  1 22  1  0
  4 23  1  0
  5 24  1  0
  7 25  1  0
  8 26  1  0
 10 27  1  0
 11 28  1  0
 11 29  1  0
 12 30  1  0
 12 31  1  0
 14 32  1  0
 16 33  1  0
 18 34  1  0
 19 35  1  0
M  END
>  <SMILES>  (11) 
COC1=CC=C(C=C1)C(C2CC2)(C3=CN=CN=C3)O

$$$$
anycymidol
     RDKit          3D

 35 37  0  0  0  0  0  0  0  0999 V2000
    5.3284   -0.1557   -0.2177 C   0  0  0  0  0  0  0  0  0  0  0  0
    4.4534   -0.8145    0.6889 O   0  0  0  0  0  0  0  0  0  0  0  0
    3.1132   -0.6068    0.5156 C   0  0  0  0  0  0  0  0  0  0  0  0
    2.2966   -1.2495    1.4456 C   0  0  0  0  0  0  0  0  0  0  0  0
    0.9055   -1.1217    1.3862 C   0  0  0  0  0  0  0  0  0  0  0  0
    0.2929   -0.3387    0.3942 C   0  0  0  0  0  0  0  0  0  0  0  0
    1.1297    0.2926   -0.5464 C   0  0  0  0  0  0  0  0  0  0  0  0
    2.5236    0.1641   -0.4836 C   0  0  0  0  0  0  0  0  0  0  0  0
   -1.2368   -0.2109    0.3108 C   0  0  0  0  0  0  0  0  0  0  0  0
   -1.7152   -1.1709   -0.7754 C   0  0  0  0  0  0  0  0  0  0  0  0
   -1.9572   -2.6382   -0.4861 C   0  0  0  0  0  0  0  0  0  0  0  0
   -3.1189   -1.7431   -0.8139 C   0  0  0  0  0  0  0  0  0  0  0  0
   -1.6972    1.2158    0.0803 C   0  0  0  0  0  0  0  0  0  0  0  0
   -1.4072    2.2123    1.0007 C   0  0  0  0  0  0  0  0  0  0  0  0
   -1.7819    3.5021    0.8734 N   0  0  0  0  0  0  0  0  0  0  0  0
   -2.4741    3.7985   -0.2335 C   0  0  0  0  0  0  0  0  0  0  0  0
   -2.8170    2.9335   -1.1980 N   0  0  0  0  0  0  0  0  0  0  0  0
   -2.4175    1.6570   -1.0142 C   0  0  0  0  0  0  0  0  0  0  0  0
   -1.8093   -0.6184    1.5625 O   0  0  0  0  0  0  0  0  0  0  0  0
    6.3548   -0.4105    0.0635 H   0  0  0  0  0  0  0  0  0  0  0  0
    5.1683   -0.5037   -1.2435 H   0  0  0  0  0  0  0  0  0  0  0  0
    5.2245    0.9322   -0.1477 H   0  0  0  0  0  0  0  0  0  0  0  0
    2.7458   -1.8584    2.2266 H   0  0  0  0  0  0  0  0  0  0  0  0
    0.3025   -1.6443    2.1265 H   0  0  0  0  0  0  0  0  0  0  0  0
    0.7061    0.8986   -1.3454 H   0  0  0  0  0  0  0  0  0  0  0  0
    3.1161    0.6787   -1.2327 H   0  0  0  0  0  0  0  0  0  0  0  0
   -1.2485   -0.9574   -1.7344 H   0  0  0  0  0  0  0  0  0  0  0  0
   -1.8576   -2.9938    0.5337 H   0  0  0  0  0  0  0  0  0  0  0  0
   -1.6379   -3.3582   -1.2314 H   0  0  0  0  0  0  0  0  0  0  0  0
   -3.8168   -1.5183   -0.0166 H   0  0  0  0  0  0  0  0  0  0  0  0
   -3.5905   -1.8666   -1.7831 H   0  0  0  0  0  0  0  0  0  0  0  0
   -0.8430    1.9924    1.9057 H   0  0  0  0  0  0  0  0  0  0  0  0
   -2.7850    4.8294   -0.3605 H   0  0  0  0  0  0  0  0  0  0  0  0
   -2.7169    0.9911   -1.8184 H   0  0  0  0  0  0  0  0  0  0  0  0
   -2.7328   -0.3187    1.5682 H   0  0  0  0  0  0  0  0  0  0  0  0
  1  2  1  0
  2  3  1  0
  3  4  2  0
  4  5  1  0
  5  6  2  0
  6  7  1  0
  7  8  2  0
  6  9  1  0
  9 10  1  0
 10 11  1  0
 11 12  1  0
  9 13  1  0
 13 14  2  0
 14 15  1  0
 15 16  2  0
 16 17  1  0
 17 18  2  0
  9 19  1  0
  8  3  1  0
 12 10  1  0
 18 13  1  0
  1 20  1  0
  1 21  1  0
  1 22  1  0
  4 23  1  0
  5 24  1  0
  7 25  1  0
  8 26  1  0
 10 27  1  0
 11 28  1  0
 11 29  1  0
 12 30  1  0
 12 31  1  0
 14 32  1  0
 16 33  1  0
 18 34  1  0
 19 35  1  0
M  END
>  <SMILES>  (12) 
COC1=CC=C(C=C1)C(C2CC2)(C3=CN=CN=C3)O

$$$$
anycymidol
     RDKit          3D

 35 37  0  0  0  0  0  0  0  0999 V2000
    5.4514    0.0709    0.0462 C   0  0  0  0  0  0  0  0  0  0  0  0
    4.4188    1.0346   -0.1184 O   0  0  0  0  0  0  0  0  0  0  0  0
    3.1323    0.5743   -0.0716 C   0  0  0  0  0  0  0  0  0  0  0  0
    2.7392   -0.7510    0.0975 C   0  0  0  0  0  0  0  0  0  0  0  0
    1.3790   -1.0856    0.1263 C   0  0  0  0  0  0  0  0  0  0  0  0
    0.3803   -0.1049   -0.0053 C   0  0  0  0  0  0  0  0  0  0  0  0
    0.7957    1.2267   -0.1878 C   0  0  0  0  0  0  0  0  0  0  0  0
    2.1539    1.5579   -0.2158 C   0  0  0  0  0  0  0  0  0  0  0  0
   -1.1110   -0.4776    0.0050 C   0  0  0  0  0  0  0  0  0  0  0  0
   -1.5828   -0.5082   -1.4464 C   0  0  0  0  0  0  0  0  0  0  0  0
   -2.7754   -1.3211   -1.9116 C   0  0  0  0  0  0  0  0  0  0  0  0
   -1.3883   -1.7320   -2.3180 C   0  0  0  0  0  0  0  0  0  0  0  0
   -1.9435    0.4435    0.8760 C   0  0  0  0  0  0  0  0  0  0  0  0
   -2.9854    1.2374    0.4335 C   0  0  0  0  0  0  0  0  0  0  0  0
   -3.7158    2.0476    1.2291 N   0  0  0  0  0  0  0  0  0  0  0  0
   -3.3770    2.0549    2.5257 C   0  0  0  0  0  0  0  0  0  0  0  0
   -2.3942    1.3357    3.0816 N   0  0  0  0  0  0  0  0  0  0  0  0
   -1.6971    0.5477    2.2371 C   0  0  0  0  0  0  0  0  0  0  0  0
   -1.2595   -1.7940    0.5589 O   0  0  0  0  0  0  0  0  0  0  0  0
    5.3878   -0.4133    1.0263 H   0  0  0  0  0  0  0  0  0  0  0  0
    6.4100    0.5963   -0.0036 H   0  0  0  0  0  0  0  0  0  0  0  0
    5.4343   -0.6674   -0.7623 H   0  0  0  0  0  0  0  0  0  0  0  0
    3.4609   -1.5533    0.2076 H   0  0  0  0  0  0  0  0  0  0  0  0
    1.1044   -2.1318    0.2522 H   0  0  0  0  0  0  0  0  0  0  0  0
    0.0686    2.0270   -0.3097 H   0  0  0  0  0  0  0  0  0  0  0  0
    2.4517    2.5950   -0.3521 H   0  0  0  0  0  0  0  0  0  0  0  0
   -1.4194    0.4461   -1.9422 H   0  0  0  0  0  0  0  0  0  0  0  0
   -3.4162   -0.8914   -2.6743 H   0  0  0  0  0  0  0  0  0  0  0  0
   -3.3009   -1.9595   -1.2118 H   0  0  0  0  0  0  0  0  0  0  0  0
   -1.0878   -1.5743   -3.3480 H   0  0  0  0  0  0  0  0  0  0  0  0
   -0.9706   -2.6294   -1.8746 H   0  0  0  0  0  0  0  0  0  0  0  0
   -3.2934    1.2632   -0.6077 H   0  0  0  0  0  0  0  0  0  0  0  0
   -3.9498    2.6996    3.1828 H   0  0  0  0  0  0  0  0  0  0  0  0
   -0.8998   -0.0252    2.7078 H   0  0  0  0  0  0  0  0  0  0  0  0
   -2.2004   -1.9132    0.7675 H   0  0  0  0  0  0  0  0  0  0  0  0
  1  2  1  0
  2  3  1  0
  3  4  2  0
  4  5  1  0
  5  6  2  0
  6  7  1  0
  7  8  2  0
  6  9  1  0
  9 10  1  0
 10 11  1  0
 11 12  1  0
  9 13  1  0
 13 14  2  0
 14 15  1  0
 15 16  2  0
 16 17  1  0
 17 18  2  0
  9 19  1  0
  8  3  1  0
 12 10  1  0
 18 13  1  0
  1 20  1  0
  1 21  1  0
  1 22  1  0
  4 23  1  0
  5 24  1  0
  7 25  1  0
  8 26  1  0
 10 27  1  0
 11 28  1  0
 11 29  1  0
 12 30  1  0
 12 31  1  0
 14 32  1  0
 16 33  1  0
 18 34  1  0
 19 35  1  0
M  END
>  <SMILES>  (13) 
COC1=CC=C(C=C1)C(C2CC2)(C3=CN=CN=C3)O

$$$$
anycymidol
     RDKit          3D

 35 37  0  0  0  0  0  0  0  0999 V2000
    5.4474    0.1431    0.1630 C   0  0  0  0  0  0  0  0  0  0  0  0
    4.3872    0.5046    1.0390 O   0  0  0  0  0  0  0  0  0  0  0  0
    3.1145    0.2822    0.5917 C   0  0  0  0  0  0  0  0  0  0  0  0
    2.1080    0.6723    1.4750 C   0  0  0  0  0  0  0  0  0  0  0  0
    0.7599    0.5020    1.1450 C   0  0  0  0  0  0  0  0  0  0  0  0
    0.3833   -0.0589   -0.0889 C   0  0  0  0  0  0  0  0  0  0  0  0
    1.4101   -0.4578   -0.9625 C   0  0  0  0  0  0  0  0  0  0  0  0
    2.7600   -0.2864   -0.6292 C   0  0  0  0  0  0  0  0  0  0  0  0
   -1.0967   -0.2681   -0.4480 C   0  0  0  0  0  0  0  0  0  0  0  0
   -1.5717   -1.5182    0.2881 C   0  0  0  0  0  0  0  0  0  0  0  0
   -2.7418   -2.3603   -0.1819 C   0  0  0  0  0  0  0  0  0  0  0  0
   -1.3447   -2.9055   -0.2767 C   0  0  0  0  0  0  0  0  0  0  0  0
   -1.9527    0.9492   -0.1551 C   0  0  0  0  0  0  0  0  0  0  0  0
   -1.7053    2.1593   -0.7867 C   0  0  0  0  0  0  0  0  0  0  0  0
   -2.4222    3.2849   -0.5888 N   0  0  0  0  0  0  0  0  0  0  0  0
   -3.4268    3.1855    0.2904 C   0  0  0  0  0  0  0  0  0  0  0  0
   -3.7691    2.0805    0.9670 N   0  0  0  0  0  0  0  0  0  0  0  0
   -3.0181    0.9850    0.7252 C   0  0  0  0  0  0  0  0  0  0  0  0
   -1.2058   -0.5034   -1.8602 O   0  0  0  0  0  0  0  0  0  0  0  0
    5.4491   -0.9346   -0.0305 H   0  0  0  0  0  0  0  0  0  0  0  0
    5.4006    0.7132   -0.7708 H   0  0  0  0  0  0  0  0  0  0  0  0
    6.3904    0.3934    0.6585 H   0  0  0  0  0  0  0  0  0  0  0  0
    2.3755    1.1138    2.4322 H   0  0  0  0  0  0  0  0  0  0  0  0
    0.0098    0.8163    1.8679 H   0  0  0  0  0  0  0  0  0  0  0  0
    1.1659   -0.9127   -1.9213 H   0  0  0  0  0  0  0  0  0  0  0  0
    3.5048   -0.6119   -1.3477 H   0  0  0  0  0  0  0  0  0  0  0  0
   -1.4371   -1.4266    1.3637 H   0  0  0  0  0  0  0  0  0  0  0  0
   -3.3969   -2.7846    0.5718 H   0  0  0  0  0  0  0  0  0  0  0  0
   -3.2468   -2.1155   -1.1083 H   0  0  0  0  0  0  0  0  0  0  0  0
   -0.9002   -3.0036   -1.2611 H   0  0  0  0  0  0  0  0  0  0  0  0
   -1.0519   -3.6888    0.4137 H   0  0  0  0  0  0  0  0  0  0  0  0
   -0.8906    2.2622   -1.5016 H   0  0  0  0  0  0  0  0  0  0  0  0
   -4.0159    4.0778    0.4703 H   0  0  0  0  0  0  0  0  0  0  0  0
   -3.3298    0.1140    1.2944 H   0  0  0  0  0  0  0  0  0  0  0  0
   -2.1423   -0.4025   -2.0965 H   0  0  0  0  0  0  0  0  0  0  0  0
  1  2  1  0
  2  3  1  0
  3  4  2  0
  4  5  1  0
  5  6  2  0
  6  7  1  0
  7  8  2  0
  6  9  1  0
  9 10  1  0
 10 11  1  0
 11 12  1  0
  9 13  1  0
 13 14  2  0
 14 15  1  0
 15 16  2  0
 16 17  1  0
 17 18  2  0
  9 19  1  0
  8  3  1  0
 12 10  1  0
 18 13  1  0
  1 20  1  0
  1 21  1  0
  1 22  1  0
  4 23  1  0
  5 24  1  0
  7 25  1  0
  8 26  1  0
 10 27  1  0
 11 28  1  0
 11 29  1  0
 12 30  1  0
 12 31  1  0
 14 32  1  0
 16 33  1  0
 18 34  1  0
 19 35  1  0
M  END
>  <SMILES>  (14) 
COC1=CC=C(C=C1)C(C2CC2)(C3=CN=CN=C3)O

$$$$
anycymidol
     RDKit          3D

 35 37  0  0  0  0  0  0  0  0999 V2000
    4.7071    1.7678   -0.9791 C   0  0  0  0  0  0  0  0  0  0  0  0
    4.3295    0.6715   -0.1559 O   0  0  0  0  0  0  0  0  0  0  0  0
    2.9930    0.4003   -0.0637 C   0  0  0  0  0  0  0  0  0  0  0  0
    1.9708    1.0660   -0.7337 C   0  0  0  0  0  0  0  0  0  0  0  0
    0.6358    0.6809   -0.5475 C   0  0  0  0  0  0  0  0  0  0  0  0
    0.2855   -0.3791    0.3116 C   0  0  0  0  0  0  0  0  0  0  0  0
    1.3345   -1.0347    0.9804 C   0  0  0  0  0  0  0  0  0  0  0  0
    2.6665   -0.6502    0.7920 C   0  0  0  0  0  0  0  0  0  0  0  0
   -1.1807   -0.8017    0.5057 C   0  0  0  0  0  0  0  0  0  0  0  0
   -1.7129   -1.7138   -0.5992 C   0  0  0  0  0  0  0  0  0  0  0  0
   -0.8937   -2.8479   -1.1836 C   0  0  0  0  0  0  0  0  0  0  0  0
   -1.2841   -1.6843   -2.0521 C   0  0  0  0  0  0  0  0  0  0  0  0
   -2.0927    0.3929    0.7220 C   0  0  0  0  0  0  0  0  0  0  0  0
   -2.1333    1.0686    1.9312 C   0  0  0  0  0  0  0  0  0  0  0  0
   -2.8924    2.1593    2.1732 N   0  0  0  0  0  0  0  0  0  0  0  0
   -3.6366    2.5866    1.1455 C   0  0  0  0  0  0  0  0  0  0  0  0
   -3.6803    2.0361   -0.0759 N   0  0  0  0  0  0  0  0  0  0  0  0
   -2.9003    0.9488   -0.2549 C   0  0  0  0  0  0  0  0  0  0  0  0
   -1.2804   -1.5734    1.7144 O   0  0  0  0  0  0  0  0  0  0  0  0
    4.4371    1.5867   -2.0247 H   0  0  0  0  0  0  0  0  0  0  0  0
    4.2728    2.7045   -0.6143 H   0  0  0  0  0  0  0  0  0  0  0  0
    5.7960    1.8641   -0.9286 H   0  0  0  0  0  0  0  0  0  0  0  0
    2.1722    1.8911   -1.4088 H   0  0  0  0  0  0  0  0  0  0  0  0
   -0.1297    1.2298   -1.0925 H   0  0  0  0  0  0  0  0  0  0  0  0
    1.1342   -1.8525    1.6685 H   0  0  0  0  0  0  0  0  0  0  0  0
    3.4568   -1.1737    1.3251 H   0  0  0  0  0  0  0  0  0  0  0  0
   -2.7572   -1.9610   -0.4078 H   0  0  0  0  0  0  0  0  0  0  0  0
    0.1554   -2.9486   -0.9300 H   0  0  0  0  0  0  0  0  0  0  0  0
   -1.3907   -3.7965   -1.3581 H   0  0  0  0  0  0  0  0  0  0  0  0
   -2.0454   -1.8522   -2.8072 H   0  0  0  0  0  0  0  0  0  0  0  0
   -0.4915   -1.0257   -2.3837 H   0  0  0  0  0  0  0  0  0  0  0  0
   -1.5298    0.7417    2.7755 H   0  0  0  0  0  0  0  0  0  0  0  0
   -4.2578    3.4586    1.3162 H   0  0  0  0  0  0  0  0  0  0  0  0
   -2.9507    0.5380   -1.2593 H   0  0  0  0  0  0  0  0  0  0  0  0
   -1.1070   -2.4980    1.4726 H   0  0  0  0  0  0  0  0  0  0  0  0
  1  2  1  0
  2  3  1  0
  3  4  2  0
  4  5  1  0
  5  6  2  0
  6  7  1  0
  7  8  2  0
  6  9  1  0
  9 10  1  0
 10 11  1  0
 11 12  1  0
  9 13  1  0
 13 14  2  0
 14 15  1  0
 15 16  2  0
 16 17  1  0
 17 18  2  0
  9 19  1  0
  8  3  1  0
 12 10  1  0
 18 13  1  0
  1 20  1  0
  1 21  1  0
  1 22  1  0
  4 23  1  0
  5 24  1  0
  7 25  1  0
  8 26  1  0
 10 27  1  0
 11 28  1  0
 11 29  1  0
 12 30  1  0
 12 31  1  0
 14 32  1  0
 16 33  1  0
 18 34  1  0
 19 35  1  0
M  END
>  <SMILES>  (15) 
COC1=CC=C(C=C1)C(C2CC2)(C3=CN=CN=C3)O

$$$$
anycymidol
     RDKit          3D

 35 37  0  0  0  0  0  0  0  0999 V2000
    5.1694    0.3139   -1.5373 C   0  0  0  0  0  0  0  0  0  0  0  0
    4.3958    1.0828   -0.6250 O   0  0  0  0  0  0  0  0  0  0  0  0
    3.1149    0.6660   -0.3943 C   0  0  0  0  0  0  0  0  0  0  0  0
    2.5021   -0.4550   -0.9493 C   0  0  0  0  0  0  0  0  0  0  0  0
    1.1745   -0.7728   -0.6267 C   0  0  0  0  0  0  0  0  0  0  0  0
    0.4285    0.0232    0.2580 C   0  0  0  0  0  0  0  0  0  0  0  0
    1.0671    1.1515    0.8102 C   0  0  0  0  0  0  0  0  0  0  0  0
    2.3896    1.4656    0.4869 C   0  0  0  0  0  0  0  0  0  0  0  0
   -1.0293   -0.2719    0.6508 C   0  0  0  0  0  0  0  0  0  0  0  0
   -1.5420   -1.5877    0.0718 C   0  0  0  0  0  0  0  0  0  0  0  0
   -2.6187   -2.3965    0.7671 C   0  0  0  0  0  0  0  0  0  0  0  0
   -1.2182   -2.9351    0.6864 C   0  0  0  0  0  0  0  0  0  0  0  0
   -1.9911    0.8203    0.2282 C   0  0  0  0  0  0  0  0  0  0  0  0
   -3.0196    1.2709    1.0361 C   0  0  0  0  0  0  0  0  0  0  0  0
   -3.9116    2.2192    0.6763 N   0  0  0  0  0  0  0  0  0  0  0  0
   -3.7572    2.7239   -0.5551 C   0  0  0  0  0  0  0  0  0  0  0  0
   -2.8145    2.3680   -1.4388 N   0  0  0  0  0  0  0  0  0  0  0  0
   -1.9518    1.4183   -1.0204 C   0  0  0  0  0  0  0  0  0  0  0  0
   -1.0477   -0.3752    2.0826 O   0  0  0  0  0  0  0  0  0  0  0  0
    6.1546    0.7831   -1.6185 H   0  0  0  0  0  0  0  0  0  0  0  0
    4.7179    0.3125   -2.5349 H   0  0  0  0  0  0  0  0  0  0  0  0
    5.3159   -0.7064   -1.1676 H   0  0  0  0  0  0  0  0  0  0  0  0
    3.0275   -1.1082   -1.6386 H   0  0  0  0  0  0  0  0  0  0  0  0
    0.7464   -1.6599   -1.0873 H   0  0  0  0  0  0  0  0  0  0  0  0
    0.5308    1.8013    1.5018 H   0  0  0  0  0  0  0  0  0  0  0  0
    2.8565    2.3445    0.9260 H   0  0  0  0  0  0  0  0  0  0  0  0
   -1.6162   -1.5495   -1.0126 H   0  0  0  0  0  0  0  0  0  0  0  0
   -3.3810   -2.8590    0.1499 H   0  0  0  0  0  0  0  0  0  0  0  0
   -2.9808   -2.0687    1.7355 H   0  0  0  0  0  0  0  0  0  0  0  0
   -0.6443   -2.9792    1.6043 H   0  0  0  0  0  0  0  0  0  0  0  0
   -1.0361   -3.7681    0.0163 H   0  0  0  0  0  0  0  0  0  0  0  0
   -3.1696    0.8688    2.0354 H   0  0  0  0  0  0  0  0  0  0  0  0
   -4.4603    3.4886   -0.8656 H   0  0  0  0  0  0  0  0  0  0  0  0
   -1.2008    1.1459   -1.7579 H   0  0  0  0  0  0  0  0  0  0  0  0
   -0.2008   -0.7747    2.3440 H   0  0  0  0  0  0  0  0  0  0  0  0
  1  2  1  0
  2  3  1  0
  3  4  2  0
  4  5  1  0
  5  6  2  0
  6  7  1  0
  7  8  2  0
  6  9  1  0
  9 10  1  0
 10 11  1  0
 11 12  1  0
  9 13  1  0
 13 14  2  0
 14 15  1  0
 15 16  2  0
 16 17  1  0
 17 18  2  0
  9 19  1  0
  8  3  1  0
 12 10  1  0
 18 13  1  0
  1 20  1  0
  1 21  1  0
  1 22  1  0
  4 23  1  0
  5 24  1  0
  7 25  1  0
  8 26  1  0
 10 27  1  0
 11 28  1  0
 11 29  1  0
 12 30  1  0
 12 31  1  0
 14 32  1  0
 16 33  1  0
 18 34  1  0
 19 35  1  0
M  END
>  <SMILES>  (16) 
COC1=CC=C(C=C1)C(C2CC2)(C3=CN=CN=C3)O

$$$$
anycymidol
     RDKit          3D

 35 37  0  0  0  0  0  0  0  0999 V2000
    5.3938   -0.3826    0.1111 C   0  0  0  0  0  0  0  0  0  0  0  0
    4.3968   -1.3761    0.3134 O   0  0  0  0  0  0  0  0  0  0  0  0
    3.1025   -1.0148    0.0636 C   0  0  0  0  0  0  0  0  0  0  0  0
    2.6686    0.2298   -0.3871 C   0  0  0  0  0  0  0  0  0  0  0  0
    1.3045    0.4693   -0.6049 C   0  0  0  0  0  0  0  0  0  0  0  0
    0.3436   -0.5338   -0.3881 C   0  0  0  0  0  0  0  0  0  0  0  0
    0.8002   -1.7792    0.0845 C   0  0  0  0  0  0  0  0  0  0  0  0
    2.1606   -2.0148    0.3003 C   0  0  0  0  0  0  0  0  0  0  0  0
   -1.1678   -0.3058   -0.5899 C   0  0  0  0  0  0  0  0  0  0  0  0
   -1.4332    0.8373   -1.5674 C   0  0  0  0  0  0  0  0  0  0  0  0
   -2.8183    1.4057   -1.8042 C   0  0  0  0  0  0  0  0  0  0  0  0
   -1.7560    2.2672   -1.1798 C   0  0  0  0  0  0  0  0  0  0  0  0
   -1.9040   -0.1625    0.7262 C   0  0  0  0  0  0  0  0  0  0  0  0
   -1.4220    0.5814    1.7905 C   0  0  0  0  0  0  0  0  0  0  0  0
   -2.0663    0.7434    2.9658 N   0  0  0  0  0  0  0  0  0  0  0  0
   -3.2466    0.1181    3.0702 C   0  0  0  0  0  0  0  0  0  0  0  0
   -3.8254   -0.6307    2.1226 N   0  0  0  0  0  0  0  0  0  0  0  0
   -3.1323   -0.7525    0.9695 C   0  0  0  0  0  0  0  0  0  0  0  0
   -1.6737   -1.4723   -1.2610 O   0  0  0  0  0  0  0  0  0  0  0  0
    5.4305   -0.0684   -0.9372 H   0  0  0  0  0  0  0  0  0  0  0  0
    6.3628   -0.8259    0.3599 H   0  0  0  0  0  0  0  0  0  0  0  0
    5.2387    0.4737    0.7759 H   0  0  0  0  0  0  0  0  0  0  0  0
    3.3638    1.0415   -0.5758 H   0  0  0  0  0  0  0  0  0  0  0  0
    1.0128    1.4620   -0.9411 H   0  0  0  0  0  0  0  0  0  0  0  0
    0.0918   -2.5792    0.2982 H   0  0  0  0  0  0  0  0  0  0  0  0
    2.4868   -2.9867    0.6639 H   0  0  0  0  0  0  0  0  0  0  0  0
   -0.8500    0.6984   -2.4766 H   0  0  0  0  0  0  0  0  0  0  0  0
   -3.6464    1.0904   -1.1808 H   0  0  0  0  0  0  0  0  0  0  0  0
   -3.1086    1.6167   -2.8280 H   0  0  0  0  0  0  0  0  0  0  0  0
   -1.3341    3.0630   -1.7851 H   0  0  0  0  0  0  0  0  0  0  0  0
   -1.8902    2.5448   -0.1417 H   0  0  0  0  0  0  0  0  0  0  0  0
   -0.4683    1.1001    1.7369 H   0  0  0  0  0  0  0  0  0  0  0  0
   -3.7824    0.2291    4.0061 H   0  0  0  0  0  0  0  0  0  0  0  0
   -3.6232   -1.3630    0.2148 H   0  0  0  0  0  0  0  0  0  0  0  0
   -1.0091   -1.7238   -1.9248 H   0  0  0  0  0  0  0  0  0  0  0  0
  1  2  1  0
  2  3  1  0
  3  4  2  0
  4  5  1  0
  5  6  2  0
  6  7  1  0
  7  8  2  0
  6  9  1  0
  9 10  1  0
 10 11  1  0
 11 12  1  0
  9 13  1  0
 13 14  2  0
 14 15  1  0
 15 16  2  0
 16 17  1  0
 17 18  2  0
  9 19  1  0
  8  3  1  0
 12 10  1  0
 18 13  1  0
  1 20  1  0
  1 21  1  0
  1 22  1  0
  4 23  1  0
  5 24  1  0
  7 25  1  0
  8 26  1  0
 10 27  1  0
 11 28  1  0
 11 29  1  0
 12 30  1  0
 12 31  1  0
 14 32  1  0
 16 33  1  0
 18 34  1  0
 19 35  1  0
M  END
>  <SMILES>  (17) 
COC1=CC=C(C=C1)C(C2CC2)(C3=CN=CN=C3)O

$$$$
anycymidol
     RDKit          3D

 35 37  0  0  0  0  0  0  0  0999 V2000
    5.2246    0.3138    1.3416 C   0  0  0  0  0  0  0  0  0  0  0  0
    4.3498   -0.7883    1.1343 O   0  0  0  0  0  0  0  0  0  0  0  0
    3.0883   -0.5010    0.6938 C   0  0  0  0  0  0  0  0  0  0  0  0
    2.5884    0.7641    0.4005 C   0  0  0  0  0  0  0  0  0  0  0  0
    1.2692    0.9114   -0.0450 C   0  0  0  0  0  0  0  0  0  0  0  0
    0.4141   -0.1991   -0.2064 C   0  0  0  0  0  0  0  0  0  0  0  0
    0.9380   -1.4659    0.0912 C   0  0  0  0  0  0  0  0  0  0  0  0
    2.2576   -1.6103    0.5348 C   0  0  0  0  0  0  0  0  0  0  0  0
   -1.0246    0.0356   -0.6971 C   0  0  0  0  0  0  0  0  0  0  0  0
   -1.7928   -1.2633   -0.9231 C   0  0  0  0  0  0  0  0  0  0  0  0
   -1.6305   -2.1069   -2.1721 C   0  0  0  0  0  0  0  0  0  0  0  0
   -2.9121   -1.3577   -1.9403 C   0  0  0  0  0  0  0  0  0  0  0  0
   -1.8410    0.8927    0.2493 C   0  0  0  0  0  0  0  0  0  0  0  0
   -1.8424    0.7080    1.6219 C   0  0  0  0  0  0  0  0  0  0  0  0
   -2.5800    1.4338    2.4881 N   0  0  0  0  0  0  0  0  0  0  0  0
   -3.3512    2.3825    1.9390 C   0  0  0  0  0  0  0  0  0  0  0  0
   -3.4493    2.6570    0.6314 N   0  0  0  0  0  0  0  0  0  0  0  0
   -2.6887    1.8958   -0.1850 C   0  0  0  0  0  0  0  0  0  0  0  0
   -0.9108    0.7160   -1.9561 O   0  0  0  0  0  0  0  0  0  0  0  0
    4.8322    0.9914    2.1071 H   0  0  0  0  0  0  0  0  0  0  0  0
    5.4183    0.8452    0.4039 H   0  0  0  0  0  0  0  0  0  0  0  0
    6.1789   -0.0806    1.7038 H   0  0  0  0  0  0  0  0  0  0  0  0
    3.1931    1.6588    0.5063 H   0  0  0  0  0  0  0  0  0  0  0  0
    0.9043    1.9147   -0.2672 H   0  0  0  0  0  0  0  0  0  0  0  0
    0.3419   -2.3688   -0.0128 H   0  0  0  0  0  0  0  0  0  0  0  0
    2.6423   -2.6027    0.7604 H   0  0  0  0  0  0  0  0  0  0  0  0
   -1.9633   -1.7980    0.0085 H   0  0  0  0  0  0  0  0  0  0  0  0
   -0.9847   -1.7617   -2.9706 H   0  0  0  0  0  0  0  0  0  0  0  0
   -1.6494   -3.1857   -2.0614 H   0  0  0  0  0  0  0  0  0  0  0  0
   -3.1213   -0.5027   -2.5740 H   0  0  0  0  0  0  0  0  0  0  0  0
   -3.7949   -1.9261   -1.6688 H   0  0  0  0  0  0  0  0  0  0  0  0
   -1.2307   -0.0577    2.0931 H   0  0  0  0  0  0  0  0  0  0  0  0
   -3.9519    2.9814    2.6143 H   0  0  0  0  0  0  0  0  0  0  0  0
   -2.7918    2.1291   -1.2422 H   0  0  0  0  0  0  0  0  0  0  0  0
   -0.1298    0.3453   -2.4009 H   0  0  0  0  0  0  0  0  0  0  0  0
  1  2  1  0
  2  3  1  0
  3  4  2  0
  4  5  1  0
  5  6  2  0
  6  7  1  0
  7  8  2  0
  6  9  1  0
  9 10  1  0
 10 11  1  0
 11 12  1  0
  9 13  1  0
 13 14  2  0
 14 15  1  0
 15 16  2  0
 16 17  1  0
 17 18  2  0
  9 19  1  0
  8  3  1  0
 12 10  1  0
 18 13  1  0
  1 20  1  0
  1 21  1  0
  1 22  1  0
  4 23  1  0
  5 24  1  0
  7 25  1  0
  8 26  1  0
 10 27  1  0
 11 28  1  0
 11 29  1  0
 12 30  1  0
 12 31  1  0
 14 32  1  0
 16 33  1  0
 18 34  1  0
 19 35  1  0
M  END
>  <SMILES>  (18) 
COC1=CC=C(C=C1)C(C2CC2)(C3=CN=CN=C3)O

$$$$
anycymidol
     RDKit          3D

 35 37  0  0  0  0  0  0  0  0999 V2000
    5.2496    0.5057    1.3095 C   0  0  0  0  0  0  0  0  0  0  0  0
    4.5812   -0.4413    0.4858 O   0  0  0  0  0  0  0  0  0  0  0  0
    3.2547   -0.2218    0.2403 C   0  0  0  0  0  0  0  0  0  0  0  0
    2.6389   -1.1901   -0.5511 C   0  0  0  0  0  0  0  0  0  0  0  0
    1.2845   -1.0874   -0.8796 C   0  0  0  0  0  0  0  0  0  0  0  0
    0.5080   -0.0009   -0.4331 C   0  0  0  0  0  0  0  0  0  0  0  0
    1.1399    0.9575    0.3784 C   0  0  0  0  0  0  0  0  0  0  0  0
    2.4988    0.8514    0.7066 C   0  0  0  0  0  0  0  0  0  0  0  0
   -0.9889    0.0630   -0.7968 C   0  0  0  0  0  0  0  0  0  0  0  0
   -1.5238    1.4908   -0.7066 C   0  0  0  0  0  0  0  0  0  0  0  0
   -2.9989    1.8201   -0.8209 C   0  0  0  0  0  0  0  0  0  0  0  0
   -2.2770    2.0735    0.4733 C   0  0  0  0  0  0  0  0  0  0  0  0
   -1.8092   -0.9431   -0.0162 C   0  0  0  0  0  0  0  0  0  0  0  0
   -2.8199   -1.6961   -0.5885 C   0  0  0  0  0  0  0  0  0  0  0  0
   -3.5834   -2.5875    0.0804 N   0  0  0  0  0  0  0  0  0  0  0  0
   -3.3078   -2.7235    1.3839 C   0  0  0  0  0  0  0  0  0  0  0  0
   -2.3613   -2.0590    2.0605 N   0  0  0  0  0  0  0  0  0  0  0  0
   -1.6312   -1.1846    1.3360 C   0  0  0  0  0  0  0  0  0  0  0  0
   -1.0873   -0.2661   -2.1929 O   0  0  0  0  0  0  0  0  0  0  0  0
    5.2523    1.4983    0.8471 H   0  0  0  0  0  0  0  0  0  0  0  0
    6.2903    0.1837    1.4125 H   0  0  0  0  0  0  0  0  0  0  0  0
    4.8100    0.5371    2.3119 H   0  0  0  0  0  0  0  0  0  0  0  0
    3.2164   -2.0387   -0.9107 H   0  0  0  0  0  0  0  0  0  0  0  0
    0.8334   -1.8733   -1.4850 H   0  0  0  0  0  0  0  0  0  0  0  0
    0.5875    1.8044    0.7798 H   0  0  0  0  0  0  0  0  0  0  0  0
    2.9324    1.6241    1.3333 H   0  0  0  0  0  0  0  0  0  0  0  0
   -0.8741    2.1716   -1.2548 H   0  0  0  0  0  0  0  0  0  0  0  0
   -3.2791    2.6771   -1.4243 H   0  0  0  0  0  0  0  0  0  0  0  0
   -3.7312    1.0220   -0.8450 H   0  0  0  0  0  0  0  0  0  0  0  0
   -2.0752    3.1052    0.7426 H   0  0  0  0  0  0  0  0  0  0  0  0
   -2.5469    1.4554    1.3204 H   0  0  0  0  0  0  0  0  0  0  0  0
   -3.0638   -1.6015   -1.6444 H   0  0  0  0  0  0  0  0  0  0  0  0
   -3.9056   -3.4350    1.9423 H   0  0  0  0  0  0  0  0  0  0  0  0
   -0.8723   -0.6620    1.9125 H   0  0  0  0  0  0  0  0  0  0  0  0
   -0.3409    0.1711   -2.6370 H   0  0  0  0  0  0  0  0  0  0  0  0
  1  2  1  0
  2  3  1  0
  3  4  2  0
  4  5  1  0
  5  6  2  0
  6  7  1  0
  7  8  2  0
  6  9  1  0
  9 10  1  0
 10 11  1  0
 11 12  1  0
  9 13  1  0
 13 14  2  0
 14 15  1  0
 15 16  2  0
 16 17  1  0
 17 18  2  0
  9 19  1  0
  8  3  1  0
 12 10  1  0
 18 13  1  0
  1 20  1  0
  1 21  1  0
  1 22  1  0
  4 23  1  0
  5 24  1  0
  7 25  1  0
  8 26  1  0
 10 27  1  0
 11 28  1  0
 11 29  1  0
 12 30  1  0
 12 31  1  0
 14 32  1  0
 16 33  1  0
 18 34  1  0
 19 35  1  0
M  END
>  <SMILES>  (19) 
COC1=CC=C(C=C1)C(C2CC2)(C3=CN=CN=C3)O

$$$$
anycymidol
     RDKit          3D

 35 37  0  0  0  0  0  0  0  0999 V2000
    5.3309    0.8390    0.3851 C   0  0  0  0  0  0  0  0  0  0  0  0
    4.3729    1.3819   -0.5145 O   0  0  0  0  0  0  0  0  0  0  0  0
    3.1114    0.8579   -0.4666 C   0  0  0  0  0  0  0  0  0  0  0  0
    2.2031    1.4397   -1.3496 C   0  0  0  0  0  0  0  0  0  0  0  0
    0.8784    0.9981   -1.4043 C   0  0  0  0  0  0  0  0  0  0  0  0
    0.4269   -0.0515   -0.5814 C   0  0  0  0  0  0  0  0  0  0  0  0
    1.3509   -0.6155    0.3157 C   0  0  0  0  0  0  0  0  0  0  0  0
    2.6792   -0.1698    0.3685 C   0  0  0  0  0  0  0  0  0  0  0  0
   -1.0485   -0.4931   -0.6545 C   0  0  0  0  0  0  0  0  0  0  0  0
   -1.2307   -1.9164   -0.1314 C   0  0  0  0  0  0  0  0  0  0  0  0
   -1.6878   -2.2866    1.2662 C   0  0  0  0  0  0  0  0  0  0  0  0
   -2.5955   -2.5363    0.0939 C   0  0  0  0  0  0  0  0  0  0  0  0
   -1.9781    0.5143   -0.0100 C   0  0  0  0  0  0  0  0  0  0  0  0
   -1.7018    1.1442    1.1921 C   0  0  0  0  0  0  0  0  0  0  0  0
   -2.5211    2.0291    1.7992 N   0  0  0  0  0  0  0  0  0  0  0  0
   -3.6665    2.2933    1.1564 C   0  0  0  0  0  0  0  0  0  0  0  0
   -4.0554    1.7578   -0.0079 N   0  0  0  0  0  0  0  0  0  0  0  0
   -3.1935    0.8783   -0.5636 C   0  0  0  0  0  0  0  0  0  0  0  0
   -1.3826   -0.5817   -2.0500 O   0  0  0  0  0  0  0  0  0  0  0  0
    5.5045   -0.2231    0.1828 H   0  0  0  0  0  0  0  0  0  0  0  0
    6.2760    1.3669    0.2257 H   0  0  0  0  0  0  0  0  0  0  0  0
    5.0309    0.9999    1.4259 H   0  0  0  0  0  0  0  0  0  0  0  0
    2.5265    2.2511   -1.9977 H   0  0  0  0  0  0  0  0  0  0  0  0
    0.1926    1.4896   -2.0941 H   0  0  0  0  0  0  0  0  0  0  0  0
    1.0564   -1.4092    0.9989 H   0  0  0  0  0  0  0  0  0  0  0  0
    3.3475   -0.6463    1.0784 H   0  0  0  0  0  0  0  0  0  0  0  0
   -0.5124   -2.5857   -0.6028 H   0  0  0  0  0  0  0  0  0  0  0  0
   -1.9895   -1.5234    1.9726 H   0  0  0  0  0  0  0  0  0  0  0  0
   -1.2268   -3.1486    1.7375 H   0  0  0  0  0  0  0  0  0  0  0  0
   -2.7426   -3.5622   -0.2270 H   0  0  0  0  0  0  0  0  0  0  0  0
   -3.4875   -1.9279    0.0049 H   0  0  0  0  0  0  0  0  0  0  0  0
   -0.7817    0.9513    1.7376 H   0  0  0  0  0  0  0  0  0  0  0  0
   -4.3403    3.0041    1.6212 H   0  0  0  0  0  0  0  0  0  0  0  0
   -3.5320    0.4554   -1.5069 H   0  0  0  0  0  0  0  0  0  0  0  0
   -0.6139   -0.9746   -2.4977 H   0  0  0  0  0  0  0  0  0  0  0  0
  1  2  1  0
  2  3  1  0
  3  4  2  0
  4  5  1  0
  5  6  2  0
  6  7  1  0
  7  8  2  0
  6  9  1  0
  9 10  1  0
 10 11  1  0
 11 12  1  0
  9 13  1  0
 13 14  2  0
 14 15  1  0
 15 16  2  0
 16 17  1  0
 17 18  2  0
  9 19  1  0
  8  3  1  0
 12 10  1  0
 18 13  1  0
  1 20  1  0
  1 21  1  0
  1 22  1  0
  4 23  1  0
  5 24  1  0
  7 25  1  0
  8 26  1  0
 10 27  1  0
 11 28  1  0
 11 29  1  0
 12 30  1  0
 12 31  1  0
 14 32  1  0
 16 33  1  0
 18 34  1  0
 19 35  1  0
M  END
>  <SMILES>  (20) 
COC1=CC=C(C=C1)C(C2CC2)(C3=CN=CN=C3)O

$$$$
anycymidol
     RDKit          3D

 35 37  0  0  0  0  0  0  0  0999 V2000
    5.0148    0.5341   -1.7974 C   0  0  0  0  0  0  0  0  0  0  0  0
    4.5101    0.3016   -0.4883 O   0  0  0  0  0  0  0  0  0  0  0  0
    3.1613    0.1143   -0.3707 C   0  0  0  0  0  0  0  0  0  0  0  0
    2.2396    0.0995   -1.4131 C   0  0  0  0  0  0  0  0  0  0  0  0
    0.8807   -0.1050   -1.1453 C   0  0  0  0  0  0  0  0  0  0  0  0
    0.4059   -0.2969    0.1693 C   0  0  0  0  0  0  0  0  0  0  0  0
    1.3513   -0.2821    1.2056 C   0  0  0  0  0  0  0  0  0  0  0  0
    2.7094   -0.0790    0.9348 C   0  0  0  0  0  0  0  0  0  0  0  0
   -1.1005   -0.5134    0.3915 C   0  0  0  0  0  0  0  0  0  0  0  0
   -1.4479   -0.8109    1.8472 C   0  0  0  0  0  0  0  0  0  0  0  0
   -1.2795   -2.1836    2.4680 C   0  0  0  0  0  0  0  0  0  0  0  0
   -2.6590   -1.6415    2.2214 C   0  0  0  0  0  0  0  0  0  0  0  0
   -1.9402    0.6691   -0.0482 C   0  0  0  0  0  0  0  0  0  0  0  0
   -1.6100    1.9805    0.2510 C   0  0  0  0  0  0  0  0  0  0  0  0
   -2.3511    3.0524   -0.0997 N   0  0  0  0  0  0  0  0  0  0  0  0
   -3.4754    2.7826   -0.7775 C   0  0  0  0  0  0  0  0  0  0  0  0
   -3.9134    1.5640   -1.1211 N   0  0  0  0  0  0  0  0  0  0  0  0
   -3.1298    0.5317   -0.7405 C   0  0  0  0  0  0  0  0  0  0  0  0
   -1.4604   -1.6561   -0.3995 O   0  0  0  0  0  0  0  0  0  0  0  0
    4.5891    1.4461   -2.2290 H   0  0  0  0  0  0  0  0  0  0  0  0
    4.8401   -0.3302   -2.4465 H   0  0  0  0  0  0  0  0  0  0  0  0
    6.0968    0.6772   -1.7179 H   0  0  0  0  0  0  0  0  0  0  0  0
    2.5391    0.2439   -2.4459 H   0  0  0  0  0  0  0  0  0  0  0  0
    0.1810   -0.1114   -1.9818 H   0  0  0  0  0  0  0  0  0  0  0  0
    1.0628   -0.4272    2.2434 H   0  0  0  0  0  0  0  0  0  0  0  0
    3.4246   -0.0706    1.7547 H   0  0  0  0  0  0  0  0  0  0  0  0
   -1.2519    0.0436    2.4911 H   0  0  0  0  0  0  0  0  0  0  0  0
   -0.9483   -3.0118    1.8529 H   0  0  0  0  0  0  0  0  0  0  0  0
   -0.9343   -2.2368    3.4948 H   0  0  0  0  0  0  0  0  0  0  0  0
   -3.2492   -2.0966    1.4333 H   0  0  0  0  0  0  0  0  0  0  0  0
   -3.2444   -1.3242    3.0773 H   0  0  0  0  0  0  0  0  0  0  0  0
   -0.7070    2.2272    0.8043 H   0  0  0  0  0  0  0  0  0  0  0  0
   -4.0874    3.6273   -1.0732 H   0  0  0  0  0  0  0  0  0  0  0  0
   -3.5096   -0.4481   -1.0210 H   0  0  0  0  0  0  0  0  0  0  0  0
   -0.7074   -2.2696   -0.3574 H   0  0  0  0  0  0  0  0  0  0  0  0
  1  2  1  0
  2  3  1  0
  3  4  2  0
  4  5  1  0
  5  6  2  0
  6  7  1  0
  7  8  2  0
  6  9  1  0
  9 10  1  0
 10 11  1  0
 11 12  1  0
  9 13  1  0
 13 14  2  0
 14 15  1  0
 15 16  2  0
 16 17  1  0
 17 18  2  0
  9 19  1  0
  8  3  1  0
 12 10  1  0
 18 13  1  0
  1 20  1  0
  1 21  1  0
  1 22  1  0
  4 23  1  0
  5 24  1  0
  7 25  1  0
  8 26  1  0
 10 27  1  0
 11 28  1  0
 11 29  1  0
 12 30  1  0
 12 31  1  0
 14 32  1  0
 16 33  1  0
 18 34  1  0
 19 35  1  0
M  END
>  <SMILES>  (21) 
COC1=CC=C(C=C1)C(C2CC2)(C3=CN=CN=C3)O

$$$$
anycymidol
     RDKit          3D

 35 37  0  0  0  0  0  0  0  0999 V2000
    5.3654    0.9928   -0.2191 C   0  0  0  0  0  0  0  0  0  0  0  0
    4.3857    1.1569    0.7987 O   0  0  0  0  0  0  0  0  0  0  0  0
    3.0824    0.9540    0.4402 C   0  0  0  0  0  0  0  0  0  0  0  0
    2.1618    1.0957    1.4787 C   0  0  0  0  0  0  0  0  0  0  0  0
    0.7924    0.9154    1.2564 C   0  0  0  0  0  0  0  0  0  0  0  0
    0.3065    0.5997   -0.0226 C   0  0  0  0  0  0  0  0  0  0  0  0
    1.2514    0.4456   -1.0577 C   0  0  0  0  0  0  0  0  0  0  0  0
    2.6215    0.6247   -0.8314 C   0  0  0  0  0  0  0  0  0  0  0  0
   -1.1878    0.3638   -0.3178 C   0  0  0  0  0  0  0  0  0  0  0  0
   -2.0782    1.0494    0.7161 C   0  0  0  0  0  0  0  0  0  0  0  0
   -2.7005    0.3754    1.9232 C   0  0  0  0  0  0  0  0  0  0  0  0
   -3.5753    0.8231    0.7853 C   0  0  0  0  0  0  0  0  0  0  0  0
   -1.5046   -1.1043   -0.5146 C   0  0  0  0  0  0  0  0  0  0  0  0
   -2.3511   -1.5650   -1.5082 C   0  0  0  0  0  0  0  0  0  0  0  0
   -2.6684   -2.8636   -1.7024 N   0  0  0  0  0  0  0  0  0  0  0  0
   -2.1014   -3.7316   -0.8546 C   0  0  0  0  0  0  0  0  0  0  0  0
   -1.2675   -3.4212    0.1470 N   0  0  0  0  0  0  0  0  0  0  0  0
   -0.9882   -2.1078    0.2884 C   0  0  0  0  0  0  0  0  0  0  0  0
   -1.4729    1.0519   -1.5478 O   0  0  0  0  0  0  0  0  0  0  0  0
    6.3466    1.1785    0.2283 H   0  0  0  0  0  0  0  0  0  0  0  0
    5.3646   -0.0314   -0.6068 H   0  0  0  0  0  0  0  0  0  0  0  0
    5.2234    1.7211   -1.0244 H   0  0  0  0  0  0  0  0  0  0  0  0
    2.5158    1.3437    2.4772 H   0  0  0  0  0  0  0  0  0  0  0  0
    0.1226    1.0205    2.1065 H   0  0  0  0  0  0  0  0  0  0  0  0
    0.9207    0.1716   -2.0599 H   0  0  0  0  0  0  0  0  0  0  0  0
    3.2974    0.4928   -1.6699 H   0  0  0  0  0  0  0  0  0  0  0  0
   -1.7806    2.0898    0.8392 H   0  0  0  0  0  0  0  0  0  0  0  0
   -2.5967   -0.6911    2.0792 H   0  0  0  0  0  0  0  0  0  0  0  0
   -2.7497    0.9406    2.8483 H   0  0  0  0  0  0  0  0  0  0  0  0
   -4.0364    0.0597    0.1702 H   0  0  0  0  0  0  0  0  0  0  0  0
   -4.2098    1.6892    0.9413 H   0  0  0  0  0  0  0  0  0  0  0  0
   -2.8257   -0.8792   -2.2064 H   0  0  0  0  0  0  0  0  0  0  0  0
   -2.3395   -4.7805   -0.9907 H   0  0  0  0  0  0  0  0  0  0  0  0
   -0.3105   -1.8879    1.1095 H   0  0  0  0  0  0  0  0  0  0  0  0
   -1.0134    1.9077   -1.5005 H   0  0  0  0  0  0  0  0  0  0  0  0
  1  2  1  0
  2  3  1  0
  3  4  2  0
  4  5  1  0
  5  6  2  0
  6  7  1  0
  7  8  2  0
  6  9  1  0
  9 10  1  0
 10 11  1  0
 11 12  1  0
  9 13  1  0
 13 14  2  0
 14 15  1  0
 15 16  2  0
 16 17  1  0
 17 18  2  0
  9 19  1  0
  8  3  1  0
 12 10  1  0
 18 13  1  0
  1 20  1  0
  1 21  1  0
  1 22  1  0
  4 23  1  0
  5 24  1  0
  7 25  1  0
  8 26  1  0
 10 27  1  0
 11 28  1  0
 11 29  1  0
 12 30  1  0
 12 31  1  0
 14 32  1  0
 16 33  1  0
 18 34  1  0
 19 35  1  0
M  END
>  <SMILES>  (22) 
COC1=CC=C(C=C1)C(C2CC2)(C3=CN=CN=C3)O

$$$$
anycymidol
     RDKit          3D

 35 37  0  0  0  0  0  0  0  0999 V2000
    5.3258    0.6347   -0.7203 C   0  0  0  0  0  0  0  0  0  0  0  0
    4.2178    1.1653   -1.4363 O   0  0  0  0  0  0  0  0  0  0  0  0
    2.9775    0.7142   -1.0816 C   0  0  0  0  0  0  0  0  0  0  0  0
    2.6967   -0.2347   -0.1013 C   0  0  0  0  0  0  0  0  0  0  0  0
    1.3721   -0.6117    0.1650 C   0  0  0  0  0  0  0  0  0  0  0  0
    0.2974   -0.0483   -0.5425 C   0  0  0  0  0  0  0  0  0  0  0  0
    0.6026    0.9081   -1.5313 C   0  0  0  0  0  0  0  0  0  0  0  0
    1.9231    1.2817   -1.7943 C   0  0  0  0  0  0  0  0  0  0  0  0
   -1.1753   -0.4193   -0.2972 C   0  0  0  0  0  0  0  0  0  0  0  0
   -1.3385   -1.5521    0.7126 C   0  0  0  0  0  0  0  0  0  0  0  0
   -2.5219   -2.4975    0.6627 C   0  0  0  0  0  0  0  0  0  0  0  0
   -1.1454   -3.0105    0.3467 C   0  0  0  0  0  0  0  0  0  0  0  0
   -2.0098    0.7495    0.1866 C   0  0  0  0  0  0  0  0  0  0  0  0
   -3.2917    0.9985   -0.2696 C   0  0  0  0  0  0  0  0  0  0  0  0
   -4.0717    2.0120    0.1649 N   0  0  0  0  0  0  0  0  0  0  0  0
   -3.5310    2.7987    1.1048 C   0  0  0  0  0  0  0  0  0  0  0  0
   -2.3096    2.6606    1.6392 N   0  0  0  0  0  0  0  0  0  0  0  0
   -1.5777    1.6317    1.1630 C   0  0  0  0  0  0  0  0  0  0  0  0
   -1.6937   -0.8661   -1.5592 O   0  0  0  0  0  0  0  0  0  0  0  0
    5.2609    0.8781    0.3454 H   0  0  0  0  0  0  0  0  0  0  0  0
    6.2334    1.1025   -1.1139 H   0  0  0  0  0  0  0  0  0  0  0  0
    5.4142   -0.4458   -0.8748 H   0  0  0  0  0  0  0  0  0  0  0  0
    3.4848   -0.7052    0.4779 H   0  0  0  0  0  0  0  0  0  0  0  0
    1.2103   -1.3577    0.9393 H   0  0  0  0  0  0  0  0  0  0  0  0
   -0.1961    1.3748   -2.1078 H   0  0  0  0  0  0  0  0  0  0  0  0
    2.1292    2.0247   -2.5615 H   0  0  0  0  0  0  0  0  0  0  0  0
   -1.0246   -1.2519    1.7097 H   0  0  0  0  0  0  0  0  0  0  0  0
   -2.9739   -2.7914    1.6036 H   0  0  0  0  0  0  0  0  0  0  0  0
   -3.2306   -2.4114   -0.1539 H   0  0  0  0  0  0  0  0  0  0  0  0
   -0.6689   -3.6577    1.0749 H   0  0  0  0  0  0  0  0  0  0  0  0
   -0.9343   -3.2796   -0.6814 H   0  0  0  0  0  0  0  0  0  0  0  0
   -3.7541    0.3675   -1.0251 H   0  0  0  0  0  0  0  0  0  0  0  0
   -4.1376    3.6208    1.4676 H   0  0  0  0  0  0  0  0  0  0  0  0
   -0.5936    1.5406    1.6164 H   0  0  0  0  0  0  0  0  0  0  0  0
   -0.9657   -1.3230   -2.0134 H   0  0  0  0  0  0  0  0  0  0  0  0
  1  2  1  0
  2  3  1  0
  3  4  2  0
  4  5  1  0
  5  6  2  0
  6  7  1  0
  7  8  2  0
  6  9  1  0
  9 10  1  0
 10 11  1  0
 11 12  1  0
  9 13  1  0
 13 14  2  0
 14 15  1  0
 15 16  2  0
 16 17  1  0
 17 18  2  0
  9 19  1  0
  8  3  1  0
 12 10  1  0
 18 13  1  0
  1 20  1  0
  1 21  1  0
  1 22  1  0
  4 23  1  0
  5 24  1  0
  7 25  1  0
  8 26  1  0
 10 27  1  0
 11 28  1  0
 11 29  1  0
 12 30  1  0
 12 31  1  0
 14 32  1  0
 16 33  1  0
 18 34  1  0
 19 35  1  0
M  END
>  <SMILES>  (23) 
COC1=CC=C(C=C1)C(C2CC2)(C3=CN=CN=C3)O

$$$$
anycymidol
     RDKit          3D

 35 37  0  0  0  0  0  0  0  0999 V2000
    5.3421    0.6459   -0.5219 C   0  0  0  0  0  0  0  0  0  0  0  0
    4.4093    1.0283    0.4809 O   0  0  0  0  0  0  0  0  0  0  0  0
    3.1175    0.6140    0.3156 C   0  0  0  0  0  0  0  0  0  0  0  0
    2.6319   -0.1682   -0.7296 C   0  0  0  0  0  0  0  0  0  0  0  0
    1.2764   -0.5256   -0.7802 C   0  0  0  0  0  0  0  0  0  0  0  0
    0.3748   -0.1087    0.2129 C   0  0  0  0  0  0  0  0  0  0  0  0
    0.8862    0.6800    1.2626 C   0  0  0  0  0  0  0  0  0  0  0  0
    2.2369    1.0346    1.3104 C   0  0  0  0  0  0  0  0  0  0  0  0
   -1.1213   -0.4669    0.2134 C   0  0  0  0  0  0  0  0  0  0  0  0
   -1.4999   -1.4231   -0.9143 C   0  0  0  0  0  0  0  0  0  0  0  0
   -2.6597   -2.3896   -0.7817 C   0  0  0  0  0  0  0  0  0  0  0  0
   -1.2538   -2.9170   -0.8396 C   0  0  0  0  0  0  0  0  0  0  0  0
   -2.0227    0.7467    0.1071 C   0  0  0  0  0  0  0  0  0  0  0  0
   -1.7876    1.7856   -0.7781 C   0  0  0  0  0  0  0  0  0  0  0  0
   -2.5888    2.8621   -0.9208 N   0  0  0  0  0  0  0  0  0  0  0  0
   -3.6743    2.8844   -0.1349 C   0  0  0  0  0  0  0  0  0  0  0  0
   -4.0220    1.9433    0.7529 N   0  0  0  0  0  0  0  0  0  0  0  0
   -3.1820    0.8898    0.8480 C   0  0  0  0  0  0  0  0  0  0  0  0
   -1.3775   -1.1248    1.4634 O   0  0  0  0  0  0  0  0  0  0  0  0
    5.4473   -0.4430   -0.5679 H   0  0  0  0  0  0  0  0  0  0  0  0
    5.0647    1.0585   -1.4975 H   0  0  0  0  0  0  0  0  0  0  0  0
    6.3163    1.0630   -0.2489 H   0  0  0  0  0  0  0  0  0  0  0  0
    3.2801   -0.5207   -1.5255 H   0  0  0  0  0  0  0  0  0  0  0  0
    0.9517   -1.1387   -1.6175 H   0  0  0  0  0  0  0  0  0  0  0  0
    0.2269    1.0290    2.0575 H   0  0  0  0  0  0  0  0  0  0  0  0
    2.6035    1.6468    2.1313 H   0  0  0  0  0  0  0  0  0  0  0  0
   -1.3917   -0.9575   -1.8913 H   0  0  0  0  0  0  0  0  0  0  0  0
   -3.1865   -2.4533    0.1642 H   0  0  0  0  0  0  0  0  0  0  0  0
   -3.2970   -2.5358   -1.6468 H   0  0  0  0  0  0  0  0  0  0  0  0
   -0.8413   -3.3456    0.0661 H   0  0  0  0  0  0  0  0  0  0  0  0
   -0.9432   -3.4263   -1.7453 H   0  0  0  0  0  0  0  0  0  0  0  0
   -0.9175    1.7912   -1.4301 H   0  0  0  0  0  0  0  0  0  0  0  0
   -4.3322    3.7412   -0.2274 H   0  0  0  0  0  0  0  0  0  0  0  0
   -3.4887    0.1340    1.5674 H   0  0  0  0  0  0  0  0  0  0  0  0
   -0.5779   -1.6336    1.6795 H   0  0  0  0  0  0  0  0  0  0  0  0
  1  2  1  0
  2  3  1  0
  3  4  2  0
  4  5  1  0
  5  6  2  0
  6  7  1  0
  7  8  2  0
  6  9  1  0
  9 10  1  0
 10 11  1  0
 11 12  1  0
  9 13  1  0
 13 14  2  0
 14 15  1  0
 15 16  2  0
 16 17  1  0
 17 18  2  0
  9 19  1  0
  8  3  1  0
 12 10  1  0
 18 13  1  0
  1 20  1  0
  1 21  1  0
  1 22  1  0
  4 23  1  0
  5 24  1  0
  7 25  1  0
  8 26  1  0
 10 27  1  0
 11 28  1  0
 11 29  1  0
 12 30  1  0
 12 31  1  0
 14 32  1  0
 16 33  1  0
 18 34  1  0
 19 35  1  0
M  END
>  <SMILES>  (24) 
COC1=CC=C(C=C1)C(C2CC2)(C3=CN=CN=C3)O

$$$$
anycymidol
     RDKit          3D

 35 37  0  0  0  0  0  0  0  0999 V2000
    5.4607    0.3464   -0.4212 C   0  0  0  0  0  0  0  0  0  0  0  0
    4.5851   -0.3097    0.4872 O   0  0  0  0  0  0  0  0  0  0  0  0
    3.2525   -0.2898    0.1842 C   0  0  0  0  0  0  0  0  0  0  0  0
    2.4361   -0.9610    1.0926 C   0  0  0  0  0  0  0  0  0  0  0  0
    1.0506   -1.0192    0.9059 C   0  0  0  0  0  0  0  0  0  0  0  0
    0.4392   -0.4114   -0.2061 C   0  0  0  0  0  0  0  0  0  0  0  0
    1.2803    0.2737   -1.1055 C   0  0  0  0  0  0  0  0  0  0  0  0
    2.6683    0.3302   -0.9163 C   0  0  0  0  0  0  0  0  0  0  0  0
   -1.0930   -0.4226   -0.4090 C   0  0  0  0  0  0  0  0  0  0  0  0
   -1.6927   -1.6993    0.1761 C   0  0  0  0  0  0  0  0  0  0  0  0
   -3.1809   -1.9459    0.3313 C   0  0  0  0  0  0  0  0  0  0  0  0
   -2.3171   -1.8085    1.5539 C   0  0  0  0  0  0  0  0  0  0  0  0
   -1.7618    0.8468    0.0912 C   0  0  0  0  0  0  0  0  0  0  0  0
   -1.2907    1.5997    1.1538 C   0  0  0  0  0  0  0  0  0  0  0  0
   -1.8821    2.7227    1.6162 N   0  0  0  0  0  0  0  0  0  0  0  0
   -2.9996    3.0986    0.9816 C   0  0  0  0  0  0  0  0  0  0  0  0
   -3.5657    2.4591   -0.0494 N   0  0  0  0  0  0  0  0  0  0  0  0
   -2.9327    1.3412   -0.4614 C   0  0  0  0  0  0  0  0  0  0  0  0
   -1.3029   -0.5489   -1.8257 O   0  0  0  0  0  0  0  0  0  0  0  0
    5.2445    1.4186   -0.4725 H   0  0  0  0  0  0  0  0  0  0  0  0
    6.4814    0.2305   -0.0443 H   0  0  0  0  0  0  0  0  0  0  0  0
    5.4179   -0.1141   -1.4137 H   0  0  0  0  0  0  0  0  0  0  0  0
    2.8820   -1.4444    1.9590 H   0  0  0  0  0  0  0  0  0  0  0  0
    0.4625   -1.5463    1.6532 H   0  0  0  0  0  0  0  0  0  0  0  0
    0.8672    0.7773   -1.9764 H   0  0  0  0  0  0  0  0  0  0  0  0
    3.2598    0.8690   -1.6492 H   0  0  0  0  0  0  0  0  0  0  0  0
   -1.1382   -2.5651   -0.1860 H   0  0  0  0  0  0  0  0  0  0  0  0
   -3.5519   -2.9346    0.0801 H   0  0  0  0  0  0  0  0  0  0  0  0
   -3.8969   -1.1608    0.1298 H   0  0  0  0  0  0  0  0  0  0  0  0
   -2.4523   -0.9243    2.1651 H   0  0  0  0  0  0  0  0  0  0  0  0
   -2.1130   -2.7048    2.1303 H   0  0  0  0  0  0  0  0  0  0  0  0
   -0.3919    1.3263    1.7003 H   0  0  0  0  0  0  0  0  0  0  0  0
   -3.4896    3.9989    1.3349 H   0  0  0  0  0  0  0  0  0  0  0  0
   -3.4281    0.8303   -1.2847 H   0  0  0  0  0  0  0  0  0  0  0  0
   -1.3070    0.3417   -2.2097 H   0  0  0  0  0  0  0  0  0  0  0  0
  1  2  1  0
  2  3  1  0
  3  4  2  0
  4  5  1  0
  5  6  2  0
  6  7  1  0
  7  8  2  0
  6  9  1  0
  9 10  1  0
 10 11  1  0
 11 12  1  0
  9 13  1  0
 13 14  2  0
 14 15  1  0
 15 16  2  0
 16 17  1  0
 17 18  2  0
  9 19  1  0
  8  3  1  0
 12 10  1  0
 18 13  1  0
  1 20  1  0
  1 21  1  0
  1 22  1  0
  4 23  1  0
  5 24  1  0
  7 25  1  0
  8 26  1  0
 10 27  1  0
 11 28  1  0
 11 29  1  0
 12 30  1  0
 12 31  1  0
 14 32  1  0
 16 33  1  0
 18 34  1  0
 19 35  1  0
M  END
>  <SMILES>  (25) 
COC1=CC=C(C=C1)C(C2CC2)(C3=CN=CN=C3)O

$$$$
anycymidol
     RDKit          3D

 35 37  0  0  0  0  0  0  0  0999 V2000
    5.2288    0.0637   -1.1999 C   0  0  0  0  0  0  0  0  0  0  0  0
    4.2760   -0.9896   -1.1316 O   0  0  0  0  0  0  0  0  0  0  0  0
    3.0360   -0.6732   -0.6521 C   0  0  0  0  0  0  0  0  0  0  0  0
    2.1308   -1.7324   -0.6278 C   0  0  0  0  0  0  0  0  0  0  0  0
    0.8276   -1.5453   -0.1598 C   0  0  0  0  0  0  0  0  0  0  0  0
    0.3900   -0.2869    0.2990 C   0  0  0  0  0  0  0  0  0  0  0  0
    1.3156    0.7692    0.2694 C   0  0  0  0  0  0  0  0  0  0  0  0
    2.6232    0.5784   -0.2011 C   0  0  0  0  0  0  0  0  0  0  0  0
   -1.0564   -0.1414    0.8024 C   0  0  0  0  0  0  0  0  0  0  0  0
   -1.3441    1.2415    1.3807 C   0  0  0  0  0  0  0  0  0  0  0  0
   -0.9308    1.6460    2.7820 C   0  0  0  0  0  0  0  0  0  0  0  0
   -2.3858    1.4505    2.4614 C   0  0  0  0  0  0  0  0  0  0  0  0
   -2.0896   -0.4126   -0.2726 C   0  0  0  0  0  0  0  0  0  0  0  0
   -1.9869    0.0864   -1.5605 C   0  0  0  0  0  0  0  0  0  0  0  0
   -2.9058   -0.1084   -2.5294 N   0  0  0  0  0  0  0  0  0  0  0  0
   -3.9739   -0.8372   -2.1767 C   0  0  0  0  0  0  0  0  0  0  0  0
   -4.1993   -1.3678   -0.9673 N   0  0  0  0  0  0  0  0  0  0  0  0
   -3.2452   -1.1362   -0.0397 C   0  0  0  0  0  0  0  0  0  0  0  0
   -1.2169   -1.1079    1.8517 O   0  0  0  0  0  0  0  0  0  0  0  0
    5.4537    0.4572   -0.2032 H   0  0  0  0  0  0  0  0  0  0  0  0
    6.1548   -0.3493   -1.6114 H   0  0  0  0  0  0  0  0  0  0  0  0
    4.8909    0.8590   -1.8726 H   0  0  0  0  0  0  0  0  0  0  0  0
    2.4406   -2.7143   -0.9783 H   0  0  0  0  0  0  0  0  0  0  0  0
    0.1470   -2.3967   -0.1574 H   0  0  0  0  0  0  0  0  0  0  0  0
    1.0474    1.7660    0.6110 H   0  0  0  0  0  0  0  0  0  0  0  0
    3.2932    1.4322   -0.1993 H   0  0  0  0  0  0  0  0  0  0  0  0
   -1.3049    2.0144    0.6166 H   0  0  0  0  0  0  0  0  0  0  0  0
   -0.4581    0.9179    3.4303 H   0  0  0  0  0  0  0  0  0  0  0  0
   -0.5800    2.6607    2.9348 H   0  0  0  0  0  0  0  0  0  0  0  0
   -3.0169    2.3296    2.3916 H   0  0  0  0  0  0  0  0  0  0  0  0
   -2.8865    0.5863    2.8843 H   0  0  0  0  0  0  0  0  0  0  0  0
   -1.1337    0.6839   -1.8725 H   0  0  0  0  0  0  0  0  0  0  0  0
   -4.7250   -1.0115   -2.9388 H   0  0  0  0  0  0  0  0  0  0  0  0
   -3.4535   -1.5678    0.9366 H   0  0  0  0  0  0  0  0  0  0  0  0
   -0.3622   -1.1645    2.3114 H   0  0  0  0  0  0  0  0  0  0  0  0
  1  2  1  0
  2  3  1  0
  3  4  2  0
  4  5  1  0
  5  6  2  0
  6  7  1  0
  7  8  2  0
  6  9  1  0
  9 10  1  0
 10 11  1  0
 11 12  1  0
  9 13  1  0
 13 14  2  0
 14 15  1  0
 15 16  2  0
 16 17  1  0
 17 18  2  0
  9 19  1  0
  8  3  1  0
 12 10  1  0
 18 13  1  0
  1 20  1  0
  1 21  1  0
  1 22  1  0
  4 23  1  0
  5 24  1  0
  7 25  1  0
  8 26  1  0
 10 27  1  0
 11 28  1  0
 11 29  1  0
 12 30  1  0
 12 31  1  0
 14 32  1  0
 16 33  1  0
 18 34  1  0
 19 35  1  0
M  END
>  <SMILES>  (26) 
COC1=CC=C(C=C1)C(C2CC2)(C3=CN=CN=C3)O

$$$$
anycymidol
     RDKit          3D

 35 37  0  0  0  0  0  0  0  0999 V2000
    5.1311   -1.6490    0.3312 C   0  0  0  0  0  0  0  0  0  0  0  0
    4.0111   -2.1515   -0.3871 O   0  0  0  0  0  0  0  0  0  0  0  0
    2.8109   -1.5346   -0.1700 C   0  0  0  0  0  0  0  0  0  0  0  0
    1.7490   -2.0415   -0.9192 C   0  0  0  0  0  0  0  0  0  0  0  0
    0.4615   -1.5054   -0.8005 C   0  0  0  0  0  0  0  0  0  0  0  0
    0.2038   -0.4417    0.0771 C   0  0  0  0  0  0  0  0  0  0  0  0
    1.2878    0.0554    0.8308 C   0  0  0  0  0  0  0  0  0  0  0  0
    2.5750   -0.4818    0.7088 C   0  0  0  0  0  0  0  0  0  0  0  0
   -1.1834    0.1974    0.2590 C   0  0  0  0  0  0  0  0  0  0  0  0
   -2.2721   -0.5121   -0.5406 C   0  0  0  0  0  0  0  0  0  0  0  0
   -2.9321   -1.7939   -0.0722 C   0  0  0  0  0  0  0  0  0  0  0  0
   -3.7181   -0.5134   -0.0870 C   0  0  0  0  0  0  0  0  0  0  0  0
   -1.2149    1.6636   -0.1233 C   0  0  0  0  0  0  0  0  0  0  0  0
   -1.8782    2.6217    0.6218 C   0  0  0  0  0  0  0  0  0  0  0  0
   -1.9476    3.9298    0.2923 N   0  0  0  0  0  0  0  0  0  0  0  0
   -1.3262    4.2760   -0.8430 C   0  0  0  0  0  0  0  0  0  0  0  0
   -0.6603    3.4478   -1.6596 N   0  0  0  0  0  0  0  0  0  0  0  0
   -0.6245    2.1544   -1.2760 C   0  0  0  0  0  0  0  0  0  0  0  0
   -1.4986    0.0762    1.6544 O   0  0  0  0  0  0  0  0  0  0  0  0
    4.9949   -1.7728    1.4106 H   0  0  0  0  0  0  0  0  0  0  0  0
    6.0071   -2.2350    0.0370 H   0  0  0  0  0  0  0  0  0  0  0  0
    5.3285   -0.6030    0.0743 H   0  0  0  0  0  0  0  0  0  0  0  0
    1.9256   -2.8658   -1.6070 H   0  0  0  0  0  0  0  0  0  0  0  0
   -0.3232   -1.9446   -1.4110 H   0  0  0  0  0  0  0  0  0  0  0  0
    1.1323    0.8800    1.5273 H   0  0  0  0  0  0  0  0  0  0  0  0
    3.3658   -0.0521    1.3148 H   0  0  0  0  0  0  0  0  0  0  0  0
   -2.1200   -0.4046   -1.6122 H   0  0  0  0  0  0  0  0  0  0  0  0
   -2.6682   -2.2097    0.8929 H   0  0  0  0  0  0  0  0  0  0  0  0
   -3.1729   -2.5426   -0.8191 H   0  0  0  0  0  0  0  0  0  0  0  0
   -3.9711   -0.0628    0.8666 H   0  0  0  0  0  0  0  0  0  0  0  0
   -4.4852   -0.3928   -0.8440 H   0  0  0  0  0  0  0  0  0  0  0  0
   -2.3979    2.3617    1.5411 H   0  0  0  0  0  0  0  0  0  0  0  0
   -1.3673    5.3213   -1.1278 H   0  0  0  0  0  0  0  0  0  0  0  0
   -0.0832    1.5039   -1.9588 H   0  0  0  0  0  0  0  0  0  0  0  0
   -1.1390   -0.7787    1.9458 H   0  0  0  0  0  0  0  0  0  0  0  0
  1  2  1  0
  2  3  1  0
  3  4  2  0
  4  5  1  0
  5  6  2  0
  6  7  1  0
  7  8  2  0
  6  9  1  0
  9 10  1  0
 10 11  1  0
 11 12  1  0
  9 13  1  0
 13 14  2  0
 14 15  1  0
 15 16  2  0
 16 17  1  0
 17 18  2  0
  9 19  1  0
  8  3  1  0
 12 10  1  0
 18 13  1  0
  1 20  1  0
  1 21  1  0
  1 22  1  0
  4 23  1  0
  5 24  1  0
  7 25  1  0
  8 26  1  0
 10 27  1  0
 11 28  1  0
 11 29  1  0
 12 30  1  0
 12 31  1  0
 14 32  1  0
 16 33  1  0
 18 34  1  0
 19 35  1  0
M  END
>  <SMILES>  (27) 
COC1=CC=C(C=C1)C(C2CC2)(C3=CN=CN=C3)O

$$$$
anycymidol
     RDKit          3D

 35 37  0  0  0  0  0  0  0  0999 V2000
    5.1417   -1.4583    0.7944 C   0  0  0  0  0  0  0  0  0  0  0  0
    4.2811   -0.5572    1.4800 O   0  0  0  0  0  0  0  0  0  0  0  0
    3.0456   -0.3474    0.9345 C   0  0  0  0  0  0  0  0  0  0  0  0
    2.2264    0.5193    1.6581 C   0  0  0  0  0  0  0  0  0  0  0  0
    0.9333    0.8254    1.2186 C   0  0  0  0  0  0  0  0  0  0  0  0
    0.4251    0.2677    0.0359 C   0  0  0  0  0  0  0  0  0  0  0  0
    1.2687   -0.6027   -0.6862 C   0  0  0  0  0  0  0  0  0  0  0  0
    2.5612   -0.9082   -0.2433 C   0  0  0  0  0  0  0  0  0  0  0  0
   -0.9844    0.5574   -0.5073 C   0  0  0  0  0  0  0  0  0  0  0  0
   -1.7372    1.5940    0.3216 C   0  0  0  0  0  0  0  0  0  0  0  0
   -1.5048    3.0853    0.1799 C   0  0  0  0  0  0  0  0  0  0  0  0
   -2.7983    2.4844   -0.2931 C   0  0  0  0  0  0  0  0  0  0  0  0
   -1.8530   -0.6816   -0.5916 C   0  0  0  0  0  0  0  0  0  0  0  0
   -2.6766   -0.9517   -1.6696 C   0  0  0  0  0  0  0  0  0  0  0  0
   -3.4823   -2.0319   -1.7610 N   0  0  0  0  0  0  0  0  0  0  0  0
   -3.4566   -2.8655   -0.7125 C   0  0  0  0  0  0  0  0  0  0  0  0
   -2.7159   -2.7150    0.3943 N   0  0  0  0  0  0  0  0  0  0  0  0
   -1.9304   -1.6181    0.4259 C   0  0  0  0  0  0  0  0  0  0  0  0
   -0.8017    1.0852   -1.8298 O   0  0  0  0  0  0  0  0  0  0  0  0
    6.0749   -1.5263    1.3618 H   0  0  0  0  0  0  0  0  0  0  0  0
    5.3865   -1.0857   -0.2057 H   0  0  0  0  0  0  0  0  0  0  0  0
    4.7065   -2.4621    0.7476 H   0  0  0  0  0  0  0  0  0  0  0  0
    2.5991    0.9631    2.5789 H   0  0  0  0  0  0  0  0  0  0  0  0
    0.3450    1.5078    1.8264 H   0  0  0  0  0  0  0  0  0  0  0  0
    0.9154   -1.0568   -1.6126 H   0  0  0  0  0  0  0  0  0  0  0  0
    3.1580   -1.5872   -0.8433 H   0  0  0  0  0  0  0  0  0  0  0  0
   -1.9586    1.2271    1.3213 H   0  0  0  0  0  0  0  0  0  0  0  0
   -0.8161    3.4502   -0.5727 H   0  0  0  0  0  0  0  0  0  0  0  0
   -1.5285    3.6899    1.0800 H   0  0  0  0  0  0  0  0  0  0  0  0
   -2.9730    2.4343   -1.3623 H   0  0  0  0  0  0  0  0  0  0  0  0
   -3.6940    2.6772    0.2870 H   0  0  0  0  0  0  0  0  0  0  0  0
   -2.7211   -0.2839   -2.5269 H   0  0  0  0  0  0  0  0  0  0  0  0
   -4.0945   -3.7407   -0.7634 H   0  0  0  0  0  0  0  0  0  0  0  0
   -1.3449   -1.5177    1.3367 H   0  0  0  0  0  0  0  0  0  0  0  0
    0.0032    1.6297   -1.8013 H   0  0  0  0  0  0  0  0  0  0  0  0
  1  2  1  0
  2  3  1  0
  3  4  2  0
  4  5  1  0
  5  6  2  0
  6  7  1  0
  7  8  2  0
  6  9  1  0
  9 10  1  0
 10 11  1  0
 11 12  1  0
  9 13  1  0
 13 14  2  0
 14 15  1  0
 15 16  2  0
 16 17  1  0
 17 18  2  0
  9 19  1  0
  8  3  1  0
 12 10  1  0
 18 13  1  0
  1 20  1  0
  1 21  1  0
  1 22  1  0
  4 23  1  0
  5 24  1  0
  7 25  1  0
  8 26  1  0
 10 27  1  0
 11 28  1  0
 11 29  1  0
 12 30  1  0
 12 31  1  0
 14 32  1  0
 16 33  1  0
 18 34  1  0
 19 35  1  0
M  END
>  <SMILES>  (28) 
COC1=CC=C(C=C1)C(C2CC2)(C3=CN=CN=C3)O

$$$$
anycymidol
     RDKit          3D

 35 37  0  0  0  0  0  0  0  0999 V2000
    5.4241   -0.3587    0.5479 C   0  0  0  0  0  0  0  0  0  0  0  0
    4.5615   -0.1005   -0.5530 O   0  0  0  0  0  0  0  0  0  0  0  0
    3.2211   -0.2609   -0.3384 C   0  0  0  0  0  0  0  0  0  0  0  0
    2.6225   -0.6748    0.8482 C   0  0  0  0  0  0  0  0  0  0  0  0
    1.2298   -0.7967    0.9275 C   0  0  0  0  0  0  0  0  0  0  0  0
    0.4009   -0.5172   -0.1782 C   0  0  0  0  0  0  0  0  0  0  0  0
    1.0221   -0.0849   -1.3608 C   0  0  0  0  0  0  0  0  0  0  0  0
    2.4140    0.0338   -1.4375 C   0  0  0  0  0  0  0  0  0  0  0  0
   -1.1285   -0.6398   -0.0303 C   0  0  0  0  0  0  0  0  0  0  0  0
   -1.8107   -0.8093   -1.3859 C   0  0  0  0  0  0  0  0  0  0  0  0
   -3.3159   -0.7567   -1.5566 C   0  0  0  0  0  0  0  0  0  0  0  0
   -2.4565    0.3030   -2.1885 C   0  0  0  0  0  0  0  0  0  0  0  0
   -1.7112    0.4797    0.8074 C   0  0  0  0  0  0  0  0  0  0  0  0
   -2.6921    0.2732    1.7619 C   0  0  0  0  0  0  0  0  0  0  0  0
   -3.2453    1.2489    2.5148 N   0  0  0  0  0  0  0  0  0  0  0  0
   -2.7824    2.4856    2.2918 C   0  0  0  0  0  0  0  0  0  0  0  0
   -1.8396    2.8232    1.4017 N   0  0  0  0  0  0  0  0  0  0  0  0
   -1.3248    1.8038    0.6815 C   0  0  0  0  0  0  0  0  0  0  0  0
   -1.3729   -1.8823    0.6509 O   0  0  0  0  0  0  0  0  0  0  0  0
    5.2164    0.3216    1.3805 H   0  0  0  0  0  0  0  0  0  0  0  0
    5.3568   -1.4047    0.8648 H   0  0  0  0  0  0  0  0  0  0  0  0
    6.4512   -0.1765    0.2175 H   0  0  0  0  0  0  0  0  0  0  0  0
    3.2049   -0.9058    1.7340 H   0  0  0  0  0  0  0  0  0  0  0  0
    0.7875   -1.1067    1.8746 H   0  0  0  0  0  0  0  0  0  0  0  0
    0.4418    0.1755   -2.2428 H   0  0  0  0  0  0  0  0  0  0  0  0
    2.8744    0.3670   -2.3652 H   0  0  0  0  0  0  0  0  0  0  0  0
   -1.3271   -1.6023   -1.9547 H   0  0  0  0  0  0  0  0  0  0  0  0
   -3.9454   -0.4681   -0.7235 H   0  0  0  0  0  0  0  0  0  0  0  0
   -3.7759   -1.4935   -2.2067 H   0  0  0  0  0  0  0  0  0  0  0  0
   -2.3414    0.2803   -3.2674 H   0  0  0  0  0  0  0  0  0  0  0  0
   -2.5312    1.3062   -1.7879 H   0  0  0  0  0  0  0  0  0  0  0  0
   -3.0860   -0.7215    1.9587 H   0  0  0  0  0  0  0  0  0  0  0  0
   -3.2099    3.2862    2.8848 H   0  0  0  0  0  0  0  0  0  0  0  0
   -0.5638    2.1094   -0.0322 H   0  0  0  0  0  0  0  0  0  0  0  0
   -0.7681   -2.5366    0.2612 H   0  0  0  0  0  0  0  0  0  0  0  0
  1  2  1  0
  2  3  1  0
  3  4  2  0
  4  5  1  0
  5  6  2  0
  6  7  1  0
  7  8  2  0
  6  9  1  0
  9 10  1  0
 10 11  1  0
 11 12  1  0
  9 13  1  0
 13 14  2  0
 14 15  1  0
 15 16  2  0
 16 17  1  0
 17 18  2  0
  9 19  1  0
  8  3  1  0
 12 10  1  0
 18 13  1  0
  1 20  1  0
  1 21  1  0
  1 22  1  0
  4 23  1  0
  5 24  1  0
  7 25  1  0
  8 26  1  0
 10 27  1  0
 11 28  1  0
 11 29  1  0
 12 30  1  0
 12 31  1  0
 14 32  1  0
 16 33  1  0
 18 34  1  0
 19 35  1  0
M  END
>  <SMILES>  (29) 
COC1=CC=C(C=C1)C(C2CC2)(C3=CN=CN=C3)O

$$$$
anycymidol
     RDKit          3D

 35 37  0  0  0  0  0  0  0  0999 V2000
    5.3641    0.2307    0.5589 C   0  0  0  0  0  0  0  0  0  0  0  0
    4.3867    1.2353    0.3196 O   0  0  0  0  0  0  0  0  0  0  0  0
    3.0994    0.8156    0.1340 C   0  0  0  0  0  0  0  0  0  0  0  0
    2.1751    1.8379   -0.0718 C   0  0  0  0  0  0  0  0  0  0  0  0
    0.8238    1.5463   -0.2755 C   0  0  0  0  0  0  0  0  0  0  0  0
    0.3559    0.2172   -0.2784 C   0  0  0  0  0  0  0  0  0  0  0  0
    1.3012   -0.8009   -0.0714 C   0  0  0  0  0  0  0  0  0  0  0  0
    2.6570   -0.5052    0.1327 C   0  0  0  0  0  0  0  0  0  0  0  0
   -1.1431   -0.0423   -0.5073 C   0  0  0  0  0  0  0  0  0  0  0  0
   -1.4768   -1.5284   -0.6056 C   0  0  0  0  0  0  0  0  0  0  0  0
   -2.6550   -2.0268   -1.4182 C   0  0  0  0  0  0  0  0  0  0  0  0
   -1.2554   -2.3364   -1.8690 C   0  0  0  0  0  0  0  0  0  0  0  0
   -2.0212    0.5539    0.5744 C   0  0  0  0  0  0  0  0  0  0  0  0
   -3.2147    1.1987    0.3040 C   0  0  0  0  0  0  0  0  0  0  0  0
   -4.0342    1.7120    1.2471 N   0  0  0  0  0  0  0  0  0  0  0  0
   -3.6288    1.5576    2.5146 C   0  0  0  0  0  0  0  0  0  0  0  0
   -2.5050    0.9448    2.9122 N   0  0  0  0  0  0  0  0  0  0  0  0
   -1.7270    0.4551    1.9242 C   0  0  0  0  0  0  0  0  0  0  0  0
   -1.4717    0.5745   -1.7614 O   0  0  0  0  0  0  0  0  0  0  0  0
    5.4565   -0.4420   -0.3001 H   0  0  0  0  0  0  0  0  0  0  0  0
    5.1425   -0.3259    1.4756 H   0  0  0  0  0  0  0  0  0  0  0  0
    6.3287    0.7287    0.6968 H   0  0  0  0  0  0  0  0  0  0  0  0
    2.5078    2.8735   -0.0718 H   0  0  0  0  0  0  0  0  0  0  0  0
    0.1298    2.3723   -0.4313 H   0  0  0  0  0  0  0  0  0  0  0  0
    1.0112   -1.8489   -0.0643 H   0  0  0  0  0  0  0  0  0  0  0  0
    3.3401   -1.3344    0.2867 H   0  0  0  0  0  0  0  0  0  0  0  0
   -1.3126   -2.0419    0.3389 H   0  0  0  0  0  0  0  0  0  0  0  0
   -3.2493   -2.8336   -1.0039 H   0  0  0  0  0  0  0  0  0  0  0  0
   -3.2301   -1.3164   -2.0021 H   0  0  0  0  0  0  0  0  0  0  0  0
   -0.8955   -1.8414   -2.7631 H   0  0  0  0  0  0  0  0  0  0  0  0
   -0.9060   -3.3577   -1.7637 H   0  0  0  0  0  0  0  0  0  0  0  0
   -3.5680    1.3271   -0.7165 H   0  0  0  0  0  0  0  0  0  0  0  0
   -4.2693    1.9636    3.2894 H   0  0  0  0  0  0  0  0  0  0  0  0
   -0.8248   -0.0401    2.2748 H   0  0  0  0  0  0  0  0  0  0  0  0
   -0.6912    0.4773   -2.3326 H   0  0  0  0  0  0  0  0  0  0  0  0
  1  2  1  0
  2  3  1  0
  3  4  2  0
  4  5  1  0
  5  6  2  0
  6  7  1  0
  7  8  2  0
  6  9  1  0
  9 10  1  0
 10 11  1  0
 11 12  1  0
  9 13  1  0
 13 14  2  0
 14 15  1  0
 15 16  2  0
 16 17  1  0
 17 18  2  0
  9 19  1  0
  8  3  1  0
 12 10  1  0
 18 13  1  0
  1 20  1  0
  1 21  1  0
  1 22  1  0
  4 23  1  0
  5 24  1  0
  7 25  1  0
  8 26  1  0
 10 27  1  0
 11 28  1  0
 11 29  1  0
 12 30  1  0
 12 31  1  0
 14 32  1  0
 16 33  1  0
 18 34  1  0
 19 35  1  0
M  END
>  <SMILES>  (30) 
COC1=CC=C(C=C1)C(C2CC2)(C3=CN=CN=C3)O

$$$$
anycymidol
     RDKit          3D

 35 37  0  0  0  0  0  0  0  0999 V2000
    5.2543   -0.9201    0.8609 C   0  0  0  0  0  0  0  0  0  0  0  0
    4.2900   -1.6734    0.1367 O   0  0  0  0  0  0  0  0  0  0  0  0
    3.0635   -1.0981   -0.0448 C   0  0  0  0  0  0  0  0  0  0  0  0
    2.6736    0.1638    0.3978 C   0  0  0  0  0  0  0  0  0  0  0  0
    1.3783    0.6361    0.1426 C   0  0  0  0  0  0  0  0  0  0  0  0
    0.4466   -0.1380   -0.5709 C   0  0  0  0  0  0  0  0  0  0  0  0
    0.8539   -1.4177   -0.9941 C   0  0  0  0  0  0  0  0  0  0  0  0
    2.1457   -1.8854   -0.7386 C   0  0  0  0  0  0  0  0  0  0  0  0
   -0.9951    0.3314   -0.8509 C   0  0  0  0  0  0  0  0  0  0  0  0
   -1.1014    1.8547   -0.8179 C   0  0  0  0  0  0  0  0  0  0  0  0
   -1.5740    2.6766    0.3653 C   0  0  0  0  0  0  0  0  0  0  0  0
   -2.4299    2.5828   -0.8672 C   0  0  0  0  0  0  0  0  0  0  0  0
   -2.0050   -0.3671    0.0360 C   0  0  0  0  0  0  0  0  0  0  0  0
   -3.2246   -0.8270   -0.4299 C   0  0  0  0  0  0  0  0  0  0  0  0
   -4.1562   -1.4364    0.3354 N   0  0  0  0  0  0  0  0  0  0  0  0
   -3.8358   -1.5890    1.6268 C   0  0  0  0  0  0  0  0  0  0  0  0
   -2.6948   -1.1913    2.2057 N   0  0  0  0  0  0  0  0  0  0  0  0
   -1.8039   -0.5911    1.3879 C   0  0  0  0  0  0  0  0  0  0  0  0
   -1.2826   -0.0156   -2.2162 O   0  0  0  0  0  0  0  0  0  0  0  0
    6.1682   -1.5187    0.9231 H   0  0  0  0  0  0  0  0  0  0  0  0
    4.9150   -0.7231    1.8832 H   0  0  0  0  0  0  0  0  0  0  0  0
    5.5007    0.0106    0.3393 H   0  0  0  0  0  0  0  0  0  0  0  0
    3.3502    0.8082    0.9498 H   0  0  0  0  0  0  0  0  0  0  0  0
    1.1154    1.6210    0.5226 H   0  0  0  0  0  0  0  0  0  0  0  0
    0.1584   -2.0689   -1.5231 H   0  0  0  0  0  0  0  0  0  0  0  0
    2.4354   -2.8772   -1.0783 H   0  0  0  0  0  0  0  0  0  0  0  0
   -0.3287    2.2997   -1.4433 H   0  0  0  0  0  0  0  0  0  0  0  0
   -1.9439    2.1969    1.2629 H   0  0  0  0  0  0  0  0  0  0  0  0
   -1.0729    3.6195    0.5588 H   0  0  0  0  0  0  0  0  0  0  0  0
   -2.5022    3.4576   -1.5049 H   0  0  0  0  0  0  0  0  0  0  0  0
   -3.3558    2.0244   -0.8001 H   0  0  0  0  0  0  0  0  0  0  0  0
   -3.5084   -0.7125   -1.4737 H   0  0  0  0  0  0  0  0  0  0  0  0
   -4.5665   -2.0778    2.2613 H   0  0  0  0  0  0  0  0  0  0  0  0
   -0.8894   -0.2805    1.8866 H   0  0  0  0  0  0  0  0  0  0  0  0
   -0.4781    0.1731   -2.7286 H   0  0  0  0  0  0  0  0  0  0  0  0
  1  2  1  0
  2  3  1  0
  3  4  2  0
  4  5  1  0
  5  6  2  0
  6  7  1  0
  7  8  2  0
  6  9  1  0
  9 10  1  0
 10 11  1  0
 11 12  1  0
  9 13  1  0
 13 14  2  0
 14 15  1  0
 15 16  2  0
 16 17  1  0
 17 18  2  0
  9 19  1  0
  8  3  1  0
 12 10  1  0
 18 13  1  0
  1 20  1  0
  1 21  1  0
  1 22  1  0
  4 23  1  0
  5 24  1  0
  7 25  1  0
  8 26  1  0
 10 27  1  0
 11 28  1  0
 11 29  1  0
 12 30  1  0
 12 31  1  0
 14 32  1  0
 16 33  1  0
 18 34  1  0
 19 35  1  0
M  END
>  <SMILES>  (31) 
COC1=CC=C(C=C1)C(C2CC2)(C3=CN=CN=C3)O

$$$$
anycymidol
     RDKit          3D

 35 37  0  0  0  0  0  0  0  0999 V2000
    5.3882   -0.2436   -0.7462 C   0  0  0  0  0  0  0  0  0  0  0  0
    4.2652    0.2171   -1.4869 O   0  0  0  0  0  0  0  0  0  0  0  0
    3.0385    0.0744   -0.9001 C   0  0  0  0  0  0  0  0  0  0  0  0
    2.7838   -0.5009    0.3424 C   0  0  0  0  0  0  0  0  0  0  0  0
    1.4715   -0.5841    0.8258 C   0  0  0  0  0  0  0  0  0  0  0  0
    0.3846   -0.0885    0.0844 C   0  0  0  0  0  0  0  0  0  0  0  0
    0.6592    0.4778   -1.1737 C   0  0  0  0  0  0  0  0  0  0  0  0
    1.9700    0.5600   -1.6537 C   0  0  0  0  0  0  0  0  0  0  0  0
   -1.0564   -0.2007    0.6078 C   0  0  0  0  0  0  0  0  0  0  0  0
   -1.7038   -1.3927   -0.0926 C   0  0  0  0  0  0  0  0  0  0  0  0
   -1.5181   -2.8078    0.4154 C   0  0  0  0  0  0  0  0  0  0  0  0
   -2.8724   -2.1613    0.4930 C   0  0  0  0  0  0  0  0  0  0  0  0
   -1.8471    1.0825    0.4391 C   0  0  0  0  0  0  0  0  0  0  0  0
   -1.4400    2.2537    1.0611 C   0  0  0  0  0  0  0  0  0  0  0  0
   -2.0889    3.4329    0.9690 N   0  0  0  0  0  0  0  0  0  0  0  0
   -3.1915    3.4303    0.2098 C   0  0  0  0  0  0  0  0  0  0  0  0
   -3.6899    2.3719   -0.4439 N   0  0  0  0  0  0  0  0  0  0  0  0
   -3.0000    1.2190   -0.3115 C   0  0  0  0  0  0  0  0  0  0  0  0
   -1.0215   -0.4666    2.0184 O   0  0  0  0  0  0  0  0  0  0  0  0
    5.3316   -1.3237   -0.5750 H   0  0  0  0  0  0  0  0  0  0  0  0
    5.4904    0.3023    0.1975 H   0  0  0  0  0  0  0  0  0  0  0  0
    6.2847   -0.0480   -1.3423 H   0  0  0  0  0  0  0  0  0  0  0  0
    3.5790   -0.8988    0.9637 H   0  0  0  0  0  0  0  0  0  0  0  0
    1.3046   -1.0466    1.7975 H   0  0  0  0  0  0  0  0  0  0  0  0
   -0.1426    0.8650   -1.7991 H   0  0  0  0  0  0  0  0  0  0  0  0
    2.1592    1.0075   -2.6267 H   0  0  0  0  0  0  0  0  0  0  0  0
   -1.6859   -1.2812   -1.1745 H   0  0  0  0  0  0  0  0  0  0  0  0
   -0.9731   -2.9647    1.3400 H   0  0  0  0  0  0  0  0  0  0  0  0
   -1.3648   -3.5907   -0.3191 H   0  0  0  0  0  0  0  0  0  0  0  0
   -3.6386   -2.5164   -0.1881 H   0  0  0  0  0  0  0  0  0  0  0  0
   -3.2491   -1.9066    1.4761 H   0  0  0  0  0  0  0  0  0  0  0  0
   -0.5440    2.2780    1.6791 H   0  0  0  0  0  0  0  0  0  0  0  0
   -3.7292    4.3672    0.1164 H   0  0  0  0  0  0  0  0  0  0  0  0
   -3.4384    0.3887   -0.8577 H   0  0  0  0  0  0  0  0  0  0  0  0
   -1.9150   -0.3053    2.3630 H   0  0  0  0  0  0  0  0  0  0  0  0
  1  2  1  0
  2  3  1  0
  3  4  2  0
  4  5  1  0
  5  6  2  0
  6  7  1  0
  7  8  2  0
  6  9  1  0
  9 10  1  0
 10 11  1  0
 11 12  1  0
  9 13  1  0
 13 14  2  0
 14 15  1  0
 15 16  2  0
 16 17  1  0
 17 18  2  0
  9 19  1  0
  8  3  1  0
 12 10  1  0
 18 13  1  0
  1 20  1  0
  1 21  1  0
  1 22  1  0
  4 23  1  0
  5 24  1  0
  7 25  1  0
  8 26  1  0
 10 27  1  0
 11 28  1  0
 11 29  1  0
 12 30  1  0
 12 31  1  0
 14 32  1  0
 16 33  1  0
 18 34  1  0
 19 35  1  0
M  END
>  <SMILES>  (32) 
COC1=CC=C(C=C1)C(C2CC2)(C3=CN=CN=C3)O

$$$$
anycymidol
     RDKit          3D

 35 37  0  0  0  0  0  0  0  0999 V2000
    4.9164    0.3852    1.3488 C   0  0  0  0  0  0  0  0  0  0  0  0
    4.3582   -0.3728    0.2828 O   0  0  0  0  0  0  0  0  0  0  0  0
    3.0082   -0.2742    0.0952 C   0  0  0  0  0  0  0  0  0  0  0  0
    2.5085   -1.0247   -0.9667 C   0  0  0  0  0  0  0  0  0  0  0  0
    1.1434   -1.0135   -1.2707 C   0  0  0  0  0  0  0  0  0  0  0  0
    0.2314   -0.2429   -0.5231 C   0  0  0  0  0  0  0  0  0  0  0  0
    0.7552    0.4955    0.5551 C   0  0  0  0  0  0  0  0  0  0  0  0
    2.1249    0.4842    0.8577 C   0  0  0  0  0  0  0  0  0  0  0  0
   -1.2733   -0.2401   -0.8654 C   0  0  0  0  0  0  0  0  0  0  0  0
   -2.0229   -1.4541   -0.3192 C   0  0  0  0  0  0  0  0  0  0  0  0
   -1.7056   -2.1302    1.0002 C   0  0  0  0  0  0  0  0  0  0  0  0
   -1.4750   -2.8674   -0.2894 C   0  0  0  0  0  0  0  0  0  0  0  0
   -1.9831    1.0423   -0.4498 C   0  0  0  0  0  0  0  0  0  0  0  0
   -1.9077    2.2036   -1.2025 C   0  0  0  0  0  0  0  0  0  0  0  0
   -2.4729    3.3806   -0.8577 N   0  0  0  0  0  0  0  0  0  0  0  0
   -3.1454    3.3834    0.2999 C   0  0  0  0  0  0  0  0  0  0  0  0
   -3.2857    2.3394    1.1273 N   0  0  0  0  0  0  0  0  0  0  0  0
   -2.6979    1.1911    0.7274 C   0  0  0  0  0  0  0  0  0  0  0  0
   -1.4496   -0.3151   -2.2904 O   0  0  0  0  0  0  0  0  0  0  0  0
    4.7601    1.4581    1.1947 H   0  0  0  0  0  0  0  0  0  0  0  0
    4.5157    0.0614    2.3150 H   0  0  0  0  0  0  0  0  0  0  0  0
    5.9955    0.2041    1.3584 H   0  0  0  0  0  0  0  0  0  0  0  0
    3.1876   -1.6314   -1.5616 H   0  0  0  0  0  0  0  0  0  0  0  0
    0.7996   -1.6375   -2.0945 H   0  0  0  0  0  0  0  0  0  0  0  0
    0.1105    1.0998    1.1902 H   0  0  0  0  0  0  0  0  0  0  0  0
    2.4631    1.0802    1.6992 H   0  0  0  0  0  0  0  0  0  0  0  0
   -3.0738   -1.3957   -0.6034 H   0  0  0  0  0  0  0  0  0  0  0  0
   -2.5377   -2.4475    1.6198 H   0  0  0  0  0  0  0  0  0  0  0  0
   -0.8316   -1.8309    1.5666 H   0  0  0  0  0  0  0  0  0  0  0  0
   -2.1568   -3.6730   -0.5426 H   0  0  0  0  0  0  0  0  0  0  0  0
   -0.4514   -3.0748   -0.5693 H   0  0  0  0  0  0  0  0  0  0  0  0
   -1.3652    2.2320   -2.1441 H   0  0  0  0  0  0  0  0  0  0  0  0
   -3.6152    4.3147    0.5957 H   0  0  0  0  0  0  0  0  0  0  0  0
   -2.8237    0.3725    1.4300 H   0  0  0  0  0  0  0  0  0  0  0  0
   -0.6035   -0.1022   -2.7136 H   0  0  0  0  0  0  0  0  0  0  0  0
  1  2  1  0
  2  3  1  0
  3  4  2  0
  4  5  1  0
  5  6  2  0
  6  7  1  0
  7  8  2  0
  6  9  1  0
  9 10  1  0
 10 11  1  0
 11 12  1  0
  9 13  1  0
 13 14  2  0
 14 15  1  0
 15 16  2  0
 16 17  1  0
 17 18  2  0
  9 19  1  0
  8  3  1  0
 12 10  1  0
 18 13  1  0
  1 20  1  0
  1 21  1  0
  1 22  1  0
  4 23  1  0
  5 24  1  0
  7 25  1  0
  8 26  1  0
 10 27  1  0
 11 28  1  0
 11 29  1  0
 12 30  1  0
 12 31  1  0
 14 32  1  0
 16 33  1  0
 18 34  1  0
 19 35  1  0
M  END
>  <SMILES>  (33) 
COC1=CC=C(C=C1)C(C2CC2)(C3=CN=CN=C3)O

$$$$
anycymidol
     RDKit          3D

 35 37  0  0  0  0  0  0  0  0999 V2000
    5.2328   -0.4868    1.2918 C   0  0  0  0  0  0  0  0  0  0  0  0
    4.5512    0.1527    0.2198 O   0  0  0  0  0  0  0  0  0  0  0  0
    3.2009   -0.0441    0.1416 C   0  0  0  0  0  0  0  0  0  0  0  0
    2.5718    0.6274   -0.9068 C   0  0  0  0  0  0  0  0  0  0  0  0
    1.1909    0.5191   -1.1077 C   0  0  0  0  0  0  0  0  0  0  0  0
    0.4006   -0.2696   -0.2584 C   0  0  0  0  0  0  0  0  0  0  0  0
    1.0536   -0.9459    0.7936 C   0  0  0  0  0  0  0  0  0  0  0  0
    2.4349   -0.8343    0.9931 C   0  0  0  0  0  0  0  0  0  0  0  0
   -1.1203   -0.4349   -0.4176 C   0  0  0  0  0  0  0  0  0  0  0  0
   -1.6661    0.2685   -1.6569 C   0  0  0  0  0  0  0  0  0  0  0  0
   -1.5750   -0.3284   -3.0473 C   0  0  0  0  0  0  0  0  0  0  0  0
   -2.9107   -0.2247   -2.3670 C   0  0  0  0  0  0  0  0  0  0  0  0
   -1.8999    0.0726    0.7788 C   0  0  0  0  0  0  0  0  0  0  0  0
   -2.9794   -0.6050    1.3163 C   0  0  0  0  0  0  0  0  0  0  0  0
   -3.7104   -0.1649    2.3634 N   0  0  0  0  0  0  0  0  0  0  0  0
   -3.3353    1.0135    2.8787 C   0  0  0  0  0  0  0  0  0  0  0  0
   -2.3195    1.7736    2.4466 N   0  0  0  0  0  0  0  0  0  0  0  0
   -1.6260    1.2801    1.3994 C   0  0  0  0  0  0  0  0  0  0  0  0
   -1.3559   -1.8439   -0.5596 O   0  0  0  0  0  0  0  0  0  0  0  0
    5.1582   -1.5763    1.2122 H   0  0  0  0  0  0  0  0  0  0  0  0
    6.2916   -0.2197    1.2213 H   0  0  0  0  0  0  0  0  0  0  0  0
    4.8642   -0.1343    2.2609 H   0  0  0  0  0  0  0  0  0  0  0  0
    3.1647    1.2457   -1.5777 H   0  0  0  0  0  0  0  0  0  0  0  0
    0.7608    1.0663   -1.9425 H   0  0  0  0  0  0  0  0  0  0  0  0
    0.4783   -1.5721    1.4765 H   0  0  0  0  0  0  0  0  0  0  0  0
    2.8752   -1.3778    1.8226 H   0  0  0  0  0  0  0  0  0  0  0  0
   -1.5696    1.3493   -1.5821 H   0  0  0  0  0  0  0  0  0  0  0  0
   -1.3769    0.3433   -3.8755 H   0  0  0  0  0  0  0  0  0  0  0  0
   -1.1538   -1.3180   -3.1780 H   0  0  0  0  0  0  0  0  0  0  0  0
   -3.3805   -1.1423   -2.0299 H   0  0  0  0  0  0  0  0  0  0  0  0
   -3.6131    0.5176   -2.7297 H   0  0  0  0  0  0  0  0  0  0  0  0
   -3.3077   -1.5579    0.9078 H   0  0  0  0  0  0  0  0  0  0  0  0
   -3.9068    1.3869    3.7210 H   0  0  0  0  0  0  0  0  0  0  0  0
   -0.8117    1.9189    1.0658 H   0  0  0  0  0  0  0  0  0  0  0  0
   -0.6110   -2.1982   -1.0743 H   0  0  0  0  0  0  0  0  0  0  0  0
  1  2  1  0
  2  3  1  0
  3  4  2  0
  4  5  1  0
  5  6  2  0
  6  7  1  0
  7  8  2  0
  6  9  1  0
  9 10  1  0
 10 11  1  0
 11 12  1  0
  9 13  1  0
 13 14  2  0
 14 15  1  0
 15 16  2  0
 16 17  1  0
 17 18  2  0
  9 19  1  0
  8  3  1  0
 12 10  1  0
 18 13  1  0
  1 20  1  0
  1 21  1  0
  1 22  1  0
  4 23  1  0
  5 24  1  0
  7 25  1  0
  8 26  1  0
 10 27  1  0
 11 28  1  0
 11 29  1  0
 12 30  1  0
 12 31  1  0
 14 32  1  0
 16 33  1  0
 18 34  1  0
 19 35  1  0
M  END
>  <SMILES>  (34) 
COC1=CC=C(C=C1)C(C2CC2)(C3=CN=CN=C3)O

$$$$
anycymidol
     RDKit          3D

 35 37  0  0  0  0  0  0  0  0999 V2000
    5.3896    0.5333    0.7191 C   0  0  0  0  0  0  0  0  0  0  0  0
    4.5219   -0.5846    0.5778 O   0  0  0  0  0  0  0  0  0  0  0  0
    3.1791   -0.3293    0.5857 C   0  0  0  0  0  0  0  0  0  0  0  0
    2.3697   -1.4523    0.4129 C   0  0  0  0  0  0  0  0  0  0  0  0
    0.9753   -1.3393    0.3988 C   0  0  0  0  0  0  0  0  0  0  0  0
    0.3526   -0.0927    0.5719 C   0  0  0  0  0  0  0  0  0  0  0  0
    1.1852    1.0339    0.7304 C   0  0  0  0  0  0  0  0  0  0  0  0
    2.5806    0.9178    0.7420 C   0  0  0  0  0  0  0  0  0  0  0  0
   -1.1772    0.0928    0.5379 C   0  0  0  0  0  0  0  0  0  0  0  0
   -1.9067   -1.2057    0.8747 C   0  0  0  0  0  0  0  0  0  0  0  0
   -3.4066   -1.3641    0.7244 C   0  0  0  0  0  0  0  0  0  0  0  0
   -2.4811   -2.1774   -0.1374 C   0  0  0  0  0  0  0  0  0  0  0  0
   -1.6444    0.7355   -0.7517 C   0  0  0  0  0  0  0  0  0  0  0  0
   -1.1551    0.3819   -1.9982 C   0  0  0  0  0  0  0  0  0  0  0  0
   -1.5660    0.9248   -3.1641 N   0  0  0  0  0  0  0  0  0  0  0  0
   -2.5092    1.8709   -3.0620 C   0  0  0  0  0  0  0  0  0  0  0  0
   -3.0652    2.3063   -1.9241 N   0  0  0  0  0  0  0  0  0  0  0  0
   -2.6133    1.7232   -0.7924 C   0  0  0  0  0  0  0  0  0  0  0  0
   -1.5035    0.9781    1.6230 O   0  0  0  0  0  0  0  0  0  0  0  0
    6.4190    0.1640    0.6828 H   0  0  0  0  0  0  0  0  0  0  0  0
    5.2602    1.2408   -0.1066 H   0  0  0  0  0  0  0  0  0  0  0  0
    5.2459    1.0241    1.6874 H   0  0  0  0  0  0  0  0  0  0  0  0
    2.8308   -2.4288    0.2807 H   0  0  0  0  0  0  0  0  0  0  0  0
    0.3948   -2.2453    0.2423 H   0  0  0  0  0  0  0  0  0  0  0  0
    0.7445    2.0254    0.8382 H   0  0  0  0  0  0  0  0  0  0  0  0
    3.1656    1.8226    0.8690 H   0  0  0  0  0  0  0  0  0  0  0  0
   -1.5044   -1.6376    1.7900 H   0  0  0  0  0  0  0  0  0  0  0  0
   -3.9883   -0.5844    0.2476 H   0  0  0  0  0  0  0  0  0  0  0  0
   -3.9421   -1.8739    1.5184 H   0  0  0  0  0  0  0  0  0  0  0  0
   -2.3969   -3.2381    0.0760 H   0  0  0  0  0  0  0  0  0  0  0  0
   -2.4633   -1.9520   -1.1964 H   0  0  0  0  0  0  0  0  0  0  0  0
   -0.3910   -0.3827   -2.1140 H   0  0  0  0  0  0  0  0  0  0  0  0
   -2.8544    2.3245   -3.9842 H   0  0  0  0  0  0  0  0  0  0  0  0
   -3.0815    2.0908    0.1180 H   0  0  0  0  0  0  0  0  0  0  0  0
   -0.9645    0.6977    2.3823 H   0  0  0  0  0  0  0  0  0  0  0  0
  1  2  1  0
  2  3  1  0
  3  4  2  0
  4  5  1  0
  5  6  2  0
  6  7  1  0
  7  8  2  0
  6  9  1  0
  9 10  1  0
 10 11  1  0
 11 12  1  0
  9 13  1  0
 13 14  2  0
 14 15  1  0
 15 16  2  0
 16 17  1  0
 17 18  2  0
  9 19  1  0
  8  3  1  0
 12 10  1  0
 18 13  1  0
  1 20  1  0
  1 21  1  0
  1 22  1  0
  4 23  1  0
  5 24  1  0
  7 25  1  0
  8 26  1  0
 10 27  1  0
 11 28  1  0
 11 29  1  0
 12 30  1  0
 12 31  1  0
 14 32  1  0
 16 33  1  0
 18 34  1  0
 19 35  1  0
M  END
>  <SMILES>  (35) 
COC1=CC=C(C=C1)C(C2CC2)(C3=CN=CN=C3)O

$$$$
anycymidol
     RDKit          3D

 35 37  0  0  0  0  0  0  0  0999 V2000
    5.2684    1.3758   -0.3509 C   0  0  0  0  0  0  0  0  0  0  0  0
    4.1019    1.9125    0.2600 O   0  0  0  0  0  0  0  0  0  0  0  0
    2.9373    1.2187    0.0817 C   0  0  0  0  0  0  0  0  0  0  0  0
    2.7912    0.0249   -0.6206 C   0  0  0  0  0  0  0  0  0  0  0  0
    1.5332   -0.5828   -0.7254 C   0  0  0  0  0  0  0  0  0  0  0  0
    0.3914   -0.0096   -0.1385 C   0  0  0  0  0  0  0  0  0  0  0  0
    0.5600    1.1896    0.5774 C   0  0  0  0  0  0  0  0  0  0  0  0
    1.8166    1.7942    0.6801 C   0  0  0  0  0  0  0  0  0  0  0  0
   -0.9836   -0.6898   -0.2367 C   0  0  0  0  0  0  0  0  0  0  0  0
   -1.2259   -1.4196    1.0820 C   0  0  0  0  0  0  0  0  0  0  0  0
   -2.1564   -2.6101    1.2097 C   0  0  0  0  0  0  0  0  0  0  0  0
   -0.6718   -2.8069    1.3342 C   0  0  0  0  0  0  0  0  0  0  0  0
   -2.0971    0.2781   -0.5878 C   0  0  0  0  0  0  0  0  0  0  0  0
   -3.1993    0.5499    0.2014 C   0  0  0  0  0  0  0  0  0  0  0  0
   -4.1812    1.4136   -0.1341 N   0  0  0  0  0  0  0  0  0  0  0  0
   -4.0410    2.0282   -1.3169 C   0  0  0  0  0  0  0  0  0  0  0  0
   -3.0271    1.8544   -2.1735 N   0  0  0  0  0  0  0  0  0  0  0  0
   -2.0748    0.9823   -1.7828 C   0  0  0  0  0  0  0  0  0  0  0  0
   -0.9498   -1.6609   -1.2938 O   0  0  0  0  0  0  0  0  0  0  0  0
    5.1602    1.3322   -1.4397 H   0  0  0  0  0  0  0  0  0  0  0  0
    6.1025    2.0476   -0.1262 H   0  0  0  0  0  0  0  0  0  0  0  0
    5.5130    0.3918    0.0627 H   0  0  0  0  0  0  0  0  0  0  0  0
    3.6325   -0.4657   -1.0983 H   0  0  0  0  0  0  0  0  0  0  0  0
    1.4535   -1.5197   -1.2745 H   0  0  0  0  0  0  0  0  0  0  0  0
   -0.2844    1.6723    1.0652 H   0  0  0  0  0  0  0  0  0  0  0  0
    1.9220    2.7244    1.2336 H   0  0  0  0  0  0  0  0  0  0  0  0
   -1.1828   -0.7405    1.9307 H   0  0  0  0  0  0  0  0  0  0  0  0
   -2.7521   -2.6941    2.1126 H   0  0  0  0  0  0  0  0  0  0  0  0
   -2.6420   -3.0138    0.3297 H   0  0  0  0  0  0  0  0  0  0  0  0
   -0.1549   -3.3183    0.5295 H   0  0  0  0  0  0  0  0  0  0  0  0
   -0.2627   -3.0150    2.3167 H   0  0  0  0  0  0  0  0  0  0  0  0
   -3.3530    0.0758    1.1664 H   0  0  0  0  0  0  0  0  0  0  0  0
   -4.8177    2.7273   -1.6059 H   0  0  0  0  0  0  0  0  0  0  0  0
   -1.2572    0.8586   -2.4910 H   0  0  0  0  0  0  0  0  0  0  0  0
   -1.8692   -1.9056   -1.4884 H   0  0  0  0  0  0  0  0  0  0  0  0
  1  2  1  0
  2  3  1  0
  3  4  2  0
  4  5  1  0
  5  6  2  0
  6  7  1  0
  7  8  2  0
  6  9  1  0
  9 10  1  0
 10 11  1  0
 11 12  1  0
  9 13  1  0
 13 14  2  0
 14 15  1  0
 15 16  2  0
 16 17  1  0
 17 18  2  0
  9 19  1  0
  8  3  1  0
 12 10  1  0
 18 13  1  0
  1 20  1  0
  1 21  1  0
  1 22  1  0
  4 23  1  0
  5 24  1  0
  7 25  1  0
  8 26  1  0
 10 27  1  0
 11 28  1  0
 11 29  1  0
 12 30  1  0
 12 31  1  0
 14 32  1  0
 16 33  1  0
 18 34  1  0
 19 35  1  0
M  END
>  <SMILES>  (36) 
COC1=CC=C(C=C1)C(C2CC2)(C3=CN=CN=C3)O

$$$$
anycymidol
     RDKit          3D

 35 37  0  0  0  0  0  0  0  0999 V2000
    5.1456    1.7164   -0.8012 C   0  0  0  0  0  0  0  0  0  0  0  0
    4.4997    0.4598   -0.9636 O   0  0  0  0  0  0  0  0  0  0  0  0
    3.2049    0.3707   -0.5346 C   0  0  0  0  0  0  0  0  0  0  0  0
    2.6043   -0.8710   -0.7433 C   0  0  0  0  0  0  0  0  0  0  0  0
    1.2809   -1.1049   -0.3546 C   0  0  0  0  0  0  0  0  0  0  0  0
    0.5255   -0.0987    0.2688 C   0  0  0  0  0  0  0  0  0  0  0  0
    1.1425    1.1546    0.4587 C   0  0  0  0  0  0  0  0  0  0  0  0
    2.4666    1.3862    0.0667 C   0  0  0  0  0  0  0  0  0  0  0  0
   -0.9437   -0.2934    0.6925 C   0  0  0  0  0  0  0  0  0  0  0  0
   -1.2770   -1.7695    0.8967 C   0  0  0  0  0  0  0  0  0  0  0  0
   -1.9511   -2.6662   -0.1232 C   0  0  0  0  0  0  0  0  0  0  0  0
   -2.6914   -2.2652    1.1225 C   0  0  0  0  0  0  0  0  0  0  0  0
   -1.9035    0.4238   -0.2343 C   0  0  0  0  0  0  0  0  0  0  0  0
   -3.0007    1.1339    0.2216 C   0  0  0  0  0  0  0  0  0  0  0  0
   -3.8855    1.7712   -0.5759 N   0  0  0  0  0  0  0  0  0  0  0  0
   -3.6459    1.6865   -1.8909 C   0  0  0  0  0  0  0  0  0  0  0  0
   -2.6252    1.0340   -2.4632 N   0  0  0  0  0  0  0  0  0  0  0  0
   -1.7752    0.4191   -1.6134 C   0  0  0  0  0  0  0  0  0  0  0  0
   -1.0692    0.2861    2.0025 O   0  0  0  0  0  0  0  0  0  0  0  0
    4.6345    2.4999   -1.3704 H   0  0  0  0  0  0  0  0  0  0  0  0
    6.1607    1.6243   -1.1993 H   0  0  0  0  0  0  0  0  0  0  0  0
    5.2262    1.9845    0.2574 H   0  0  0  0  0  0  0  0  0  0  0  0
    3.1723   -1.6664   -1.2213 H   0  0  0  0  0  0  0  0  0  0  0  0
    0.8585   -2.0859   -0.5583 H   0  0  0  0  0  0  0  0  0  0  0  0
    0.5831    1.9734    0.9120 H   0  0  0  0  0  0  0  0  0  0  0  0
    2.8843    2.3722    0.2415 H   0  0  0  0  0  0  0  0  0  0  0  0
   -0.5345   -2.2380    1.5412 H   0  0  0  0  0  0  0  0  0  0  0  0
   -1.6096   -3.6937   -0.1969 H   0  0  0  0  0  0  0  0  0  0  0  0
   -2.3097   -2.2666   -1.0636 H   0  0  0  0  0  0  0  0  0  0  0  0
   -2.8458   -3.0188    1.8877 H   0  0  0  0  0  0  0  0  0  0  0  0
   -3.5271   -1.5838    1.0179 H   0  0  0  0  0  0  0  0  0  0  0  0
   -3.2177    1.2142    1.2844 H   0  0  0  0  0  0  0  0  0  0  0  0
   -4.3414    2.1909   -2.5520 H   0  0  0  0  0  0  0  0  0  0  0  0
   -0.9591   -0.1021   -2.1075 H   0  0  0  0  0  0  0  0  0  0  0  0
   -0.2765    0.0225    2.5003 H   0  0  0  0  0  0  0  0  0  0  0  0
  1  2  1  0
  2  3  1  0
  3  4  2  0
  4  5  1  0
  5  6  2  0
  6  7  1  0
  7  8  2  0
  6  9  1  0
  9 10  1  0
 10 11  1  0
 11 12  1  0
  9 13  1  0
 13 14  2  0
 14 15  1  0
 15 16  2  0
 16 17  1  0
 17 18  2  0
  9 19  1  0
  8  3  1  0
 12 10  1  0
 18 13  1  0
  1 20  1  0
  1 21  1  0
  1 22  1  0
  4 23  1  0
  5 24  1  0
  7 25  1  0
  8 26  1  0
 10 27  1  0
 11 28  1  0
 11 29  1  0
 12 30  1  0
 12 31  1  0
 14 32  1  0
 16 33  1  0
 18 34  1  0
 19 35  1  0
M  END
>  <SMILES>  (37) 
COC1=CC=C(C=C1)C(C2CC2)(C3=CN=CN=C3)O

$$$$
anycymidol
     RDKit          3D

 35 37  0  0  0  0  0  0  0  0999 V2000
    5.3390   -0.3653   -0.6182 C   0  0  0  0  0  0  0  0  0  0  0  0
    4.3930   -1.2455   -0.0249 O   0  0  0  0  0  0  0  0  0  0  0  0
    3.1070   -0.7947    0.0781 C   0  0  0  0  0  0  0  0  0  0  0  0
    2.6391    0.4552   -0.3207 C   0  0  0  0  0  0  0  0  0  0  0  0
    1.2878    0.7942   -0.1573 C   0  0  0  0  0  0  0  0  0  0  0  0
    0.3727   -0.1090    0.4082 C   0  0  0  0  0  0  0  0  0  0  0  0
    0.8662   -1.3672    0.8069 C   0  0  0  0  0  0  0  0  0  0  0  0
    2.2128   -1.7021    0.6429 C   0  0  0  0  0  0  0  0  0  0  0  0
   -1.1197    0.2028    0.6134 C   0  0  0  0  0  0  0  0  0  0  0  0
   -1.4781    1.6409    0.2485 C   0  0  0  0  0  0  0  0  0  0  0  0
   -1.2179    2.8111    1.1763 C   0  0  0  0  0  0  0  0  0  0  0  0
   -2.6293    2.3670    0.9148 C   0  0  0  0  0  0  0  0  0  0  0  0
   -2.0321   -0.7118   -0.1788 C   0  0  0  0  0  0  0  0  0  0  0  0
   -3.1997   -1.2423    0.3395 C   0  0  0  0  0  0  0  0  0  0  0  0
   -4.0492   -2.0338   -0.3506 N   0  0  0  0  0  0  0  0  0  0  0  0
   -3.7025   -2.2904   -1.6190 C   0  0  0  0  0  0  0  0  0  0  0  0
   -2.6095   -1.8313   -2.2441 N   0  0  0  0  0  0  0  0  0  0  0  0
   -1.7990   -1.0480   -1.5020 C   0  0  0  0  0  0  0  0  0  0  0  0
   -1.3812    0.0173    2.0128 O   0  0  0  0  0  0  0  0  0  0  0  0
    5.0668   -0.1317   -1.6529 H   0  0  0  0  0  0  0  0  0  0  0  0
    5.4554    0.5470   -0.0239 H   0  0  0  0  0  0  0  0  0  0  0  0
    6.3063   -0.8766   -0.6359 H   0  0  0  0  0  0  0  0  0  0  0  0
    3.2983    1.1951   -0.7634 H   0  0  0  0  0  0  0  0  0  0  0  0
    0.9772    1.7836   -0.4844 H   0  0  0  0  0  0  0  0  0  0  0  0
    0.1960   -2.1034    1.2508 H   0  0  0  0  0  0  0  0  0  0  0  0
    2.5655   -2.6818    0.9572 H   0  0  0  0  0  0  0  0  0  0  0  0
   -1.3652    1.8266   -0.8171 H   0  0  0  0  0  0  0  0  0  0  0  0
   -0.8097    2.6294    2.1634 H   0  0  0  0  0  0  0  0  0  0  0  0
   -0.8936    3.7469    0.7344 H   0  0  0  0  0  0  0  0  0  0  0  0
   -3.1645    1.8776    1.7214 H   0  0  0  0  0  0  0  0  0  0  0  0
   -3.2570    2.9964    0.2936 H   0  0  0  0  0  0  0  0  0  0  0  0
   -3.5057   -1.0397    1.3633 H   0  0  0  0  0  0  0  0  0  0  0  0
   -4.3680   -2.9257   -2.1925 H   0  0  0  0  0  0  0  0  0  0  0  0
   -0.9228   -0.6864   -2.0346 H   0  0  0  0  0  0  0  0  0  0  0  0
   -0.5786    0.2956    2.4855 H   0  0  0  0  0  0  0  0  0  0  0  0
  1  2  1  0
  2  3  1  0
  3  4  2  0
  4  5  1  0
  5  6  2  0
  6  7  1  0
  7  8  2  0
  6  9  1  0
  9 10  1  0
 10 11  1  0
 11 12  1  0
  9 13  1  0
 13 14  2  0
 14 15  1  0
 15 16  2  0
 16 17  1  0
 17 18  2  0
  9 19  1  0
  8  3  1  0
 12 10  1  0
 18 13  1  0
  1 20  1  0
  1 21  1  0
  1 22  1  0
  4 23  1  0
  5 24  1  0
  7 25  1  0
  8 26  1  0
 10 27  1  0
 11 28  1  0
 11 29  1  0
 12 30  1  0
 12 31  1  0
 14 32  1  0
 16 33  1  0
 18 34  1  0
 19 35  1  0
M  END
>  <SMILES>  (38) 
COC1=CC=C(C=C1)C(C2CC2)(C3=CN=CN=C3)O

$$$$
anycymidol
     RDKit          3D

 35 37  0  0  0  0  0  0  0  0999 V2000
    5.2633   -0.5782   -0.6537 C   0  0  0  0  0  0  0  0  0  0  0  0
    4.5477   -0.1775    0.5077 O   0  0  0  0  0  0  0  0  0  0  0  0
    3.1868   -0.1023    0.3999 C   0  0  0  0  0  0  0  0  0  0  0  0
    2.4385   -0.3512   -0.7483 C   0  0  0  0  0  0  0  0  0  0  0  0
    1.0422   -0.2362   -0.7199 C   0  0  0  0  0  0  0  0  0  0  0  0
    0.3607    0.1208    0.4597 C   0  0  0  0  0  0  0  0  0  0  0  0
    1.1335    0.3801    1.6033 C   0  0  0  0  0  0  0  0  0  0  0  0
    2.5267    0.2661    1.5718 C   0  0  0  0  0  0  0  0  0  0  0  0
   -1.1698    0.2645    0.4821 C   0  0  0  0  0  0  0  0  0  0  0  0
   -1.5090    1.6182   -0.1368 C   0  0  0  0  0  0  0  0  0  0  0  0
   -2.7915    2.3682    0.1663 C   0  0  0  0  0  0  0  0  0  0  0  0
   -1.4809    2.8931    0.6811 C   0  0  0  0  0  0  0  0  0  0  0  0
   -1.8800   -0.8892   -0.1998 C   0  0  0  0  0  0  0  0  0  0  0  0
   -2.7024   -0.7811   -1.3059 C   0  0  0  0  0  0  0  0  0  0  0  0
   -3.3249   -1.8235   -1.8962 N   0  0  0  0  0  0  0  0  0  0  0  0
   -3.1065   -3.0247   -1.3434 C   0  0  0  0  0  0  0  0  0  0  0  0
   -2.3366   -3.2660   -0.2752 N   0  0  0  0  0  0  0  0  0  0  0  0
   -1.7381   -2.1868    0.2699 C   0  0  0  0  0  0  0  0  0  0  0  0
   -1.6201    0.2617    1.8450 O   0  0  0  0  0  0  0  0  0  0  0  0
    4.9730   -1.5859   -0.9690 H   0  0  0  0  0  0  0  0  0  0  0  0
    5.1323    0.1441   -1.4663 H   0  0  0  0  0  0  0  0  0  0  0  0
    6.3272   -0.6028   -0.3990 H   0  0  0  0  0  0  0  0  0  0  0  0
    2.9065   -0.6353   -1.6849 H   0  0  0  0  0  0  0  0  0  0  0  0
    0.4928   -0.4329   -1.6388 H   0  0  0  0  0  0  0  0  0  0  0  0
    0.6562    0.6764    2.5356 H   0  0  0  0  0  0  0  0  0  0  0  0
    3.1012    0.4683    2.4726 H   0  0  0  0  0  0  0  0  0  0  0  0
   -1.1191    1.7066   -1.1484 H   0  0  0  0  0  0  0  0  0  0  0  0
   -3.2664    2.9105   -0.6445 H   0  0  0  0  0  0  0  0  0  0  0  0
   -3.4909    1.9724    0.8926 H   0  0  0  0  0  0  0  0  0  0  0  0
   -1.2867    2.8273    1.7462 H   0  0  0  0  0  0  0  0  0  0  0  0
   -1.0657    3.7808    0.2168 H   0  0  0  0  0  0  0  0  0  0  0  0
   -2.9076    0.1717   -1.7853 H   0  0  0  0  0  0  0  0  0  0  0  0
   -3.5969   -3.8764   -1.8015 H   0  0  0  0  0  0  0  0  0  0  0  0
   -1.1143   -2.4045    1.1354 H   0  0  0  0  0  0  0  0  0  0  0  0
   -2.5811    0.1237    1.8308 H   0  0  0  0  0  0  0  0  0  0  0  0
  1  2  1  0
  2  3  1  0
  3  4  2  0
  4  5  1  0
  5  6  2  0
  6  7  1  0
  7  8  2  0
  6  9  1  0
  9 10  1  0
 10 11  1  0
 11 12  1  0
  9 13  1  0
 13 14  2  0
 14 15  1  0
 15 16  2  0
 16 17  1  0
 17 18  2  0
  9 19  1  0
  8  3  1  0
 12 10  1  0
 18 13  1  0
  1 20  1  0
  1 21  1  0
  1 22  1  0
  4 23  1  0
  5 24  1  0
  7 25  1  0
  8 26  1  0
 10 27  1  0
 11 28  1  0
 11 29  1  0
 12 30  1  0
 12 31  1  0
 14 32  1  0
 16 33  1  0
 18 34  1  0
 19 35  1  0
M  END
>  <SMILES>  (39) 
COC1=CC=C(C=C1)C(C2CC2)(C3=CN=CN=C3)O

$$$$
anycymidol
     RDKit          3D

 35 37  0  0  0  0  0  0  0  0999 V2000
    5.2788    0.6934   -0.2359 C   0  0  0  0  0  0  0  0  0  0  0  0
    4.3821    0.0977    0.6935 O   0  0  0  0  0  0  0  0  0  0  0  0
    3.0717    0.0117    0.3173 C   0  0  0  0  0  0  0  0  0  0  0  0
    2.5319    0.4373   -0.8891 C   0  0  0  0  0  0  0  0  0  0  0  0
    1.1608    0.2826   -1.1375 C   0  0  0  0  0  0  0  0  0  0  0  0
    0.2824   -0.3185   -0.2044 C   0  0  0  0  0  0  0  0  0  0  0  0
    0.8521   -0.7038    1.0159 C   0  0  0  0  0  0  0  0  0  0  0  0
    2.2238   -0.5533    1.2664 C   0  0  0  0  0  0  0  0  0  0  0  0
   -1.2179   -0.4032   -0.5503 C   0  0  0  0  0  0  0  0  0  0  0  0
   -2.0674   -1.5483   -0.0120 C   0  0  0  0  0  0  0  0  0  0  0  0
   -1.5313   -2.8802    0.4616 C   0  0  0  0  0  0  0  0  0  0  0  0
   -2.2499   -1.9697    1.4281 C   0  0  0  0  0  0  0  0  0  0  0  0
   -1.9362    0.9000   -0.2570 C   0  0  0  0  0  0  0  0  0  0  0  0
   -2.6964    1.5785   -1.1932 C   0  0  0  0  0  0  0  0  0  0  0  0
   -3.3636    2.7276   -0.9483 N   0  0  0  0  0  0  0  0  0  0  0  0
   -3.2569    3.2059    0.2982 C   0  0  0  0  0  0  0  0  0  0  0  0
   -2.5617    2.6466    1.2976 N   0  0  0  0  0  0  0  0  0  0  0  0
   -1.9156    1.5020    0.9895 C   0  0  0  0  0  0  0  0  0  0  0  0
   -1.2606   -0.6298   -1.9752 O   0  0  0  0  0  0  0  0  0  0  0  0
    5.0065    1.7351   -0.4351 H   0  0  0  0  0  0  0  0  0  0  0  0
    6.2766    0.6902    0.2134 H   0  0  0  0  0  0  0  0  0  0  0  0
    5.3292    0.1130   -1.1631 H   0  0  0  0  0  0  0  0  0  0  0  0
    3.1393    0.9030   -1.6580 H   0  0  0  0  0  0  0  0  0  0  0  0
    0.7746    0.6587   -2.0858 H   0  0  0  0  0  0  0  0  0  0  0  0
    0.2620   -1.1252    1.8186 H   0  0  0  0  0  0  0  0  0  0  0  0
    2.6315   -0.8740    2.2229 H   0  0  0  0  0  0  0  0  0  0  0  0
   -2.9870   -1.6010   -0.6002 H   0  0  0  0  0  0  0  0  0  0  0  0
   -2.0504   -3.7754    0.1322 H   0  0  0  0  0  0  0  0  0  0  0  0
   -0.4670   -3.0324    0.5826 H   0  0  0  0  0  0  0  0  0  0  0  0
   -1.7027   -1.4814    2.2198 H   0  0  0  0  0  0  0  0  0  0  0  0
   -3.2504   -2.2589    1.7395 H   0  0  0  0  0  0  0  0  0  0  0  0
   -2.8040    1.2096   -2.2105 H   0  0  0  0  0  0  0  0  0  0  0  0
   -3.7819    4.1285    0.5186 H   0  0  0  0  0  0  0  0  0  0  0  0
   -1.3616    1.0729    1.8194 H   0  0  0  0  0  0  0  0  0  0  0  0
   -0.7407   -1.4391   -2.1265 H   0  0  0  0  0  0  0  0  0  0  0  0
  1  2  1  0
  2  3  1  0
  3  4  2  0
  4  5  1  0
  5  6  2  0
  6  7  1  0
  7  8  2  0
  6  9  1  0
  9 10  1  0
 10 11  1  0
 11 12  1  0
  9 13  1  0
 13 14  2  0
 14 15  1  0
 15 16  2  0
 16 17  1  0
 17 18  2  0
  9 19  1  0
  8  3  1  0
 12 10  1  0
 18 13  1  0
  1 20  1  0
  1 21  1  0
  1 22  1  0
  4 23  1  0
  5 24  1  0
  7 25  1  0
  8 26  1  0
 10 27  1  0
 11 28  1  0
 11 29  1  0
 12 30  1  0
 12 31  1  0
 14 32  1  0
 16 33  1  0
 18 34  1  0
 19 35  1  0
M  END
>  <SMILES>  (40) 
COC1=CC=C(C=C1)C(C2CC2)(C3=CN=CN=C3)O

$$$$
anycymidol
     RDKit          3D

 35 37  0  0  0  0  0  0  0  0999 V2000
   -5.1637    1.0269   -1.3620 C   0  0  0  0  0  0  0  0  0  0  0  0
   -4.1338    0.3299   -2.0523 O   0  0  0  0  0  0  0  0  0  0  0  0
   -2.9477    0.1689   -1.3925 C   0  0  0  0  0  0  0  0  0  0  0  0
   -2.6621    0.5957   -0.0992 C   0  0  0  0  0  0  0  0  0  0  0  0
   -1.3973    0.3616    0.4538 C   0  0  0  0  0  0  0  0  0  0  0  0
   -0.3841   -0.3014   -0.2703 C   0  0  0  0  0  0  0  0  0  0  0  0
   -0.6930   -0.7268   -1.5709 C   0  0  0  0  0  0  0  0  0  0  0  0
   -1.9588   -0.4928   -2.1205 C   0  0  0  0  0  0  0  0  0  0  0  0
    0.9836   -0.5228    0.3977 C   0  0  0  0  0  0  0  0  0  0  0  0
    1.9384   -1.3429   -0.4649 C   0  0  0  0  0  0  0  0  0  0  0  0
    3.0258   -2.2014    0.1492 C   0  0  0  0  0  0  0  0  0  0  0  0
    1.8708   -2.8545   -0.5559 C   0  0  0  0  0  0  0  0  0  0  0  0
    1.6851    0.7722    0.7549 C   0  0  0  0  0  0  0  0  0  0  0  0
    2.3506    0.9623    1.9524 C   0  0  0  0  0  0  0  0  0  0  0  0
    3.0080    2.0937    2.2874 N   0  0  0  0  0  0  0  0  0  0  0  0
    2.9959    3.0664    1.3661 C   0  0  0  0  0  0  0  0  0  0  0  0
    2.4010    3.0066    0.1666 N   0  0  0  0  0  0  0  0  0  0  0  0
    1.7592    1.8520   -0.1093 C   0  0  0  0  0  0  0  0  0  0  0  0
    0.7243   -1.2566    1.6041 O   0  0  0  0  0  0  0  0  0  0  0  0
   -6.0322    1.0824   -2.0253 H   0  0  0  0  0  0  0  0  0  0  0  0
   -4.8582    2.0518   -1.1268 H   0  0  0  0  0  0  0  0  0  0  0  0
   -5.4681    0.4872   -0.4592 H   0  0  0  0  0  0  0  0  0  0  0  0
   -3.3960    1.1138    0.5093 H   0  0  0  0  0  0  0  0  0  0  0  0
   -1.2016    0.7073    1.4694 H   0  0  0  0  0  0  0  0  0  0  0  0
    0.0338   -1.2480   -2.1886 H   0  0  0  0  0  0  0  0  0  0  0  0
   -2.1755   -0.8310   -3.1317 H   0  0  0  0  0  0  0  0  0  0  0  0
    2.2204   -0.8113   -1.3710 H   0  0  0  0  0  0  0  0  0  0  0  0
    3.9949   -2.2136   -0.3371 H   0  0  0  0  0  0  0  0  0  0  0  0
    3.0778   -2.2926    1.2287 H   0  0  0  0  0  0  0  0  0  0  0  0
    2.0623   -3.3136   -1.5197 H   0  0  0  0  0  0  0  0  0  0  0  0
    1.1537   -3.3953    0.0501 H   0  0  0  0  0  0  0  0  0  0  0  0
    2.3821    0.1831    2.7104 H   0  0  0  0  0  0  0  0  0  0  0  0
    3.5164    3.9849    1.6130 H   0  0  0  0  0  0  0  0  0  0  0  0
    1.2906    1.8283   -1.0903 H   0  0  0  0  0  0  0  0  0  0  0  0
   -0.0026   -1.8702    1.4035 H   0  0  0  0  0  0  0  0  0  0  0  0
  1  2  1  0
  2  3  1  0
  3  4  2  0
  4  5  1  0
  5  6  2  0
  6  7  1  0
  7  8  2  0
  6  9  1  0
  9 10  1  0
 10 11  1  0
 11 12  1  0
  9 13  1  0
 13 14  2  0
 14 15  1  0
 15 16  2  0
 16 17  1  0
 17 18  2  0
  9 19  1  0
  8  3  1  0
 12 10  1  0
 18 13  1  0
  1 20  1  0
  1 21  1  0
  1 22  1  0
  4 23  1  0
  5 24  1  0
  7 25  1  0
  8 26  1  0
 10 27  1  0
 11 28  1  0
 11 29  1  0
 12 30  1  0
 12 31  1  0
 14 32  1  0
 16 33  1  0
 18 34  1  0
 19 35  1  0
M  END
>  <SMILES>  (41) 
COC1=CC=C(C=C1)C(C2CC2)(C3=CN=CN=C3)O

$$$$
anycymidol
     RDKit          3D

 35 37  0  0  0  0  0  0  0  0999 V2000
    5.2067    0.0350   -0.8312 C   0  0  0  0  0  0  0  0  0  0  0  0
    4.2415    0.8434   -0.1703 O   0  0  0  0  0  0  0  0  0  0  0  0
    2.9510    0.3941   -0.1735 C   0  0  0  0  0  0  0  0  0  0  0  0
    2.4889   -0.7751   -0.7691 C   0  0  0  0  0  0  0  0  0  0  0  0
    1.1312   -1.1149   -0.6944 C   0  0  0  0  0  0  0  0  0  0  0  0
    0.1970   -0.3018   -0.0193 C   0  0  0  0  0  0  0  0  0  0  0  0
    0.6859    0.8812    0.5624 C   0  0  0  0  0  0  0  0  0  0  0  0
    2.0425    1.2180    0.4884 C   0  0  0  0  0  0  0  0  0  0  0  0
   -1.2942   -0.6921    0.0447 C   0  0  0  0  0  0  0  0  0  0  0  0
   -2.0704   -0.3373   -1.2226 C   0  0  0  0  0  0  0  0  0  0  0  0
   -1.5328   -0.4753   -2.6335 C   0  0  0  0  0  0  0  0  0  0  0  0
   -1.8044    0.8915   -2.0698 C   0  0  0  0  0  0  0  0  0  0  0  0
   -2.0126   -0.1378    1.2684 C   0  0  0  0  0  0  0  0  0  0  0  0
   -1.9149   -0.7342    2.5155 C   0  0  0  0  0  0  0  0  0  0  0  0
   -2.4905   -0.2601    3.6414 N   0  0  0  0  0  0  0  0  0  0  0  0
   -3.1960    0.8689    3.5002 C   0  0  0  0  0  0  0  0  0  0  0  0
   -3.3612    1.5524    2.3602 N   0  0  0  0  0  0  0  0  0  0  0  0
   -2.7611    1.0279    1.2699 C   0  0  0  0  0  0  0  0  0  0  0  0
   -1.4154   -2.1208    0.1565 O   0  0  0  0  0  0  0  0  0  0  0  0
    6.1790    0.5273   -0.7331 H   0  0  0  0  0  0  0  0  0  0  0  0
    4.9836   -0.0516   -1.8998 H   0  0  0  0  0  0  0  0  0  0  0  0
    5.2839   -0.9513   -0.3618 H   0  0  0  0  0  0  0  0  0  0  0  0
    3.1530   -1.4437   -1.3068 H   0  0  0  0  0  0  0  0  0  0  0  0
    0.8062   -2.0258   -1.1964 H   0  0  0  0  0  0  0  0  0  0  0  0
    0.0282    1.5713    1.0861 H   0  0  0  0  0  0  0  0  0  0  0  0
    2.3921    2.1377    0.9529 H   0  0  0  0  0  0  0  0  0  0  0  0
   -3.1103   -0.6467   -1.1156 H   0  0  0  0  0  0  0  0  0  0  0  0
   -0.5013   -0.7445   -2.8132 H   0  0  0  0  0  0  0  0  0  0  0  0
   -2.2105   -0.8555   -3.3913 H   0  0  0  0  0  0  0  0  0  0  0  0
   -2.6600    1.4352   -2.4562 H   0  0  0  0  0  0  0  0  0  0  0  0
   -0.9495    1.5225   -1.8563 H   0  0  0  0  0  0  0  0  0  0  0  0
   -1.3449   -1.6481    2.6619 H   0  0  0  0  0  0  0  0  0  0  0  0
   -3.6734    1.2672    4.3884 H   0  0  0  0  0  0  0  0  0  0  0  0
   -2.9066    1.6177    0.3695 H   0  0  0  0  0  0  0  0  0  0  0  0
   -0.5608   -2.4747    0.4478 H   0  0  0  0  0  0  0  0  0  0  0  0
  1  2  1  0
  2  3  1  0
  3  4  2  0
  4  5  1  0
  5  6  2  0
  6  7  1  0
  7  8  2  0
  6  9  1  0
  9 10  1  0
 10 11  1  0
 11 12  1  0
  9 13  1  0
 13 14  2  0
 14 15  1  0
 15 16  2  0
 16 17  1  0
 17 18  2  0
  9 19  1  0
  8  3  1  0
 12 10  1  0
 18 13  1  0
  1 20  1  0
  1 21  1  0
  1 22  1  0
  4 23  1  0
  5 24  1  0
  7 25  1  0
  8 26  1  0
 10 27  1  0
 11 28  1  0
 11 29  1  0
 12 30  1  0
 12 31  1  0
 14 32  1  0
 16 33  1  0
 18 34  1  0
 19 35  1  0
M  END
>  <SMILES>  (42) 
COC1=CC=C(C=C1)C(C2CC2)(C3=CN=CN=C3)O

$$$$
anycymidol
     RDKit          3D

 35 37  0  0  0  0  0  0  0  0999 V2000
    5.2067   -0.0129    0.8070 C   0  0  0  0  0  0  0  0  0  0  0  0
    4.0200   -0.2484    1.5540 O   0  0  0  0  0  0  0  0  0  0  0  0
    2.8341   -0.1189    0.8868 C   0  0  0  0  0  0  0  0  0  0  0  0
    1.6978   -0.3139    1.6697 C   0  0  0  0  0  0  0  0  0  0  0  0
    0.4181   -0.2117    1.1139 C   0  0  0  0  0  0  0  0  0  0  0  0
    0.2368    0.0857   -0.2493 C   0  0  0  0  0  0  0  0  0  0  0  0
    1.3969    0.2818   -1.0225 C   0  0  0  0  0  0  0  0  0  0  0  0
    2.6787    0.1806   -0.4635 C   0  0  0  0  0  0  0  0  0  0  0  0
   -1.1682    0.1894   -0.8659 C   0  0  0  0  0  0  0  0  0  0  0  0
   -1.7946   -1.1614   -1.2114 C   0  0  0  0  0  0  0  0  0  0  0  0
   -1.0040   -2.2819   -1.8583 C   0  0  0  0  0  0  0  0  0  0  0  0
   -1.5568   -2.4621   -0.4718 C   0  0  0  0  0  0  0  0  0  0  0  0
   -2.1028    1.0285   -0.0129 C   0  0  0  0  0  0  0  0  0  0  0  0
   -2.0269    2.4120    0.0073 C   0  0  0  0  0  0  0  0  0  0  0  0
   -2.8045    3.2103    0.7705 N   0  0  0  0  0  0  0  0  0  0  0  0
   -3.6905    2.5799    1.5517 C   0  0  0  0  0  0  0  0  0  0  0  0
   -3.8580    1.2528    1.6382 N   0  0  0  0  0  0  0  0  0  0  0  0
   -3.0517    0.5095    0.8508 C   0  0  0  0  0  0  0  0  0  0  0  0
   -1.0679    0.8921   -2.1167 O   0  0  0  0  0  0  0  0  0  0  0  0
    6.0578   -0.1364    1.4837 H   0  0  0  0  0  0  0  0  0  0  0  0
    5.2343    1.0114    0.4208 H   0  0  0  0  0  0  0  0  0  0  0  0
    5.3153   -0.7438   -0.0011 H   0  0  0  0  0  0  0  0  0  0  0  0
    1.8071   -0.5443    2.7270 H   0  0  0  0  0  0  0  0  0  0  0  0
   -0.4344   -0.3716    1.7703 H   0  0  0  0  0  0  0  0  0  0  0  0
    1.3226    0.5277   -2.0796 H   0  0  0  0  0  0  0  0  0  0  0  0
    3.5311    0.3457   -1.1140 H   0  0  0  0  0  0  0  0  0  0  0  0
   -2.7936   -1.0151   -1.6225 H   0  0  0  0  0  0  0  0  0  0  0  0
   -1.4738   -2.8363   -2.6640 H   0  0  0  0  0  0  0  0  0  0  0  0
    0.0724   -2.2013   -1.9569 H   0  0  0  0  0  0  0  0  0  0  0  0
   -2.3998   -3.1347   -0.3484 H   0  0  0  0  0  0  0  0  0  0  0  0
   -0.8452   -2.5167    0.3423 H   0  0  0  0  0  0  0  0  0  0  0  0
   -1.3075    2.9422   -0.6132 H   0  0  0  0  0  0  0  0  0  0  0  0
   -4.3282    3.1992    2.1724 H   0  0  0  0  0  0  0  0  0  0  0  0
   -3.2046   -0.5606    0.9585 H   0  0  0  0  0  0  0  0  0  0  0  0
   -0.9167    0.2231   -2.8043 H   0  0  0  0  0  0  0  0  0  0  0  0
  1  2  1  0
  2  3  1  0
  3  4  2  0
  4  5  1  0
  5  6  2  0
  6  7  1  0
  7  8  2  0
  6  9  1  0
  9 10  1  0
 10 11  1  0
 11 12  1  0
  9 13  1  0
 13 14  2  0
 14 15  1  0
 15 16  2  0
 16 17  1  0
 17 18  2  0
  9 19  1  0
  8  3  1  0
 12 10  1  0
 18 13  1  0
  1 20  1  0
  1 21  1  0
  1 22  1  0
  4 23  1  0
  5 24  1  0
  7 25  1  0
  8 26  1  0
 10 27  1  0
 11 28  1  0
 11 29  1  0
 12 30  1  0
 12 31  1  0
 14 32  1  0
 16 33  1  0
 18 34  1  0
 19 35  1  0
M  END
>  <SMILES>  (43) 
COC1=CC=C(C=C1)C(C2CC2)(C3=CN=CN=C3)O

$$$$
anycymidol
     RDKit          3D

 35 37  0  0  0  0  0  0  0  0999 V2000
    5.0159    0.7576   -1.5113 C   0  0  0  0  0  0  0  0  0  0  0  0
    4.5543    0.1418   -0.3158 O   0  0  0  0  0  0  0  0  0  0  0  0
    3.2003    0.0696   -0.1408 C   0  0  0  0  0  0  0  0  0  0  0  0
    2.2310    0.5144   -1.0369 C   0  0  0  0  0  0  0  0  0  0  0  0
    0.8705    0.3777   -0.7308 C   0  0  0  0  0  0  0  0  0  0  0  0
    0.4471   -0.1981    0.4828 C   0  0  0  0  0  0  0  0  0  0  0  0
    1.4390   -0.6519    1.3673 C   0  0  0  0  0  0  0  0  0  0  0  0
    2.7959   -0.5157    1.0587 C   0  0  0  0  0  0  0  0  0  0  0  0
   -1.0466   -0.3637    0.8067 C   0  0  0  0  0  0  0  0  0  0  0  0
   -1.5458   -1.5857    0.0400 C   0  0  0  0  0  0  0  0  0  0  0  0
   -1.3778   -2.9882    0.5875 C   0  0  0  0  0  0  0  0  0  0  0  0
   -2.7536   -2.3954    0.4701 C   0  0  0  0  0  0  0  0  0  0  0  0
   -1.8550    0.8858    0.5141 C   0  0  0  0  0  0  0  0  0  0  0  0
   -1.5818    2.0773    1.1699 C   0  0  0  0  0  0  0  0  0  0  0  0
   -2.2539    3.2301    0.9711 N   0  0  0  0  0  0  0  0  0  0  0  0
   -3.2401    3.1780    0.0674 C   0  0  0  0  0  0  0  0  0  0  0  0
   -3.6034    2.0954   -0.6342 N   0  0  0  0  0  0  0  0  0  0  0  0
   -2.8971    0.9709   -0.3904 C   0  0  0  0  0  0  0  0  0  0  0  0
   -1.1954   -0.6162    2.2119 O   0  0  0  0  0  0  0  0  0  0  0  0
    4.6955    0.1945   -2.3940 H   0  0  0  0  0  0  0  0  0  0  0  0
    6.1100    0.7493   -1.4907 H   0  0  0  0  0  0  0  0  0  0  0  0
    4.6920    1.8021   -1.5687 H   0  0  0  0  0  0  0  0  0  0  0  0
    2.4958    0.9711   -1.9846 H   0  0  0  0  0  0  0  0  0  0  0  0
    0.1430    0.7318   -1.4591 H   0  0  0  0  0  0  0  0  0  0  0  0
    1.1640   -1.1200    2.3108 H   0  0  0  0  0  0  0  0  0  0  0  0
    3.5439   -0.8716    1.7632 H   0  0  0  0  0  0  0  0  0  0  0  0
   -1.3833   -1.4824   -1.0306 H   0  0  0  0  0  0  0  0  0  0  0  0
   -1.0950   -3.7704   -0.1082 H   0  0  0  0  0  0  0  0  0  0  0  0
   -0.9590   -3.1158    1.5800 H   0  0  0  0  0  0  0  0  0  0  0  0
   -3.2712   -2.1484    1.3890 H   0  0  0  0  0  0  0  0  0  0  0  0
   -3.4048   -2.7865   -0.3045 H   0  0  0  0  0  0  0  0  0  0  0  0
   -0.7820    2.1413    1.9061 H   0  0  0  0  0  0  0  0  0  0  0  0
   -3.7943    4.0925   -0.1124 H   0  0  0  0  0  0  0  0  0  0  0  0
   -3.2251    0.1192   -0.9794 H   0  0  0  0  0  0  0  0  0  0  0  0
   -2.1333   -0.4906    2.4296 H   0  0  0  0  0  0  0  0  0  0  0  0
  1  2  1  0
  2  3  1  0
  3  4  2  0
  4  5  1  0
  5  6  2  0
  6  7  1  0
  7  8  2  0
  6  9  1  0
  9 10  1  0
 10 11  1  0
 11 12  1  0
  9 13  1  0
 13 14  2  0
 14 15  1  0
 15 16  2  0
 16 17  1  0
 17 18  2  0
  9 19  1  0
  8  3  1  0
 12 10  1  0
 18 13  1  0
  1 20  1  0
  1 21  1  0
  1 22  1  0
  4 23  1  0
  5 24  1  0
  7 25  1  0
  8 26  1  0
 10 27  1  0
 11 28  1  0
 11 29  1  0
 12 30  1  0
 12 31  1  0
 14 32  1  0
 16 33  1  0
 18 34  1  0
 19 35  1  0
M  END
>  <SMILES>  (44) 
COC1=CC=C(C=C1)C(C2CC2)(C3=CN=CN=C3)O

$$$$
anycymidol
     RDKit          3D

 35 37  0  0  0  0  0  0  0  0999 V2000
    5.1979    1.6367    0.3326 C   0  0  0  0  0  0  0  0  0  0  0  0
    4.4913    0.4887    0.7859 O   0  0  0  0  0  0  0  0  0  0  0  0
    3.2064    0.3398    0.3442 C   0  0  0  0  0  0  0  0  0  0  0  0
    2.5444   -0.7836    0.8401 C   0  0  0  0  0  0  0  0  0  0  0  0
    1.2231   -1.0609    0.4732 C   0  0  0  0  0  0  0  0  0  0  0  0
    0.5320   -0.2219   -0.4156 C   0  0  0  0  0  0  0  0  0  0  0  0
    1.2103    0.9170   -0.8958 C   0  0  0  0  0  0  0  0  0  0  0  0
    2.5320    1.1928   -0.5250 C   0  0  0  0  0  0  0  0  0  0  0  0
   -0.9321   -0.4650   -0.8319 C   0  0  0  0  0  0  0  0  0  0  0  0
   -1.3262   -1.9307   -0.6646 C   0  0  0  0  0  0  0  0  0  0  0  0
   -2.0685   -2.5097    0.5238 C   0  0  0  0  0  0  0  0  0  0  0  0
   -2.7548   -2.4156   -0.8107 C   0  0  0  0  0  0  0  0  0  0  0  0
   -1.8839    0.5011   -0.1572 C   0  0  0  0  0  0  0  0  0  0  0  0
   -1.7947    0.8464    1.1811 C   0  0  0  0  0  0  0  0  0  0  0  0
   -2.6393    1.6899    1.8119 N   0  0  0  0  0  0  0  0  0  0  0  0
   -3.6129    2.2103    1.0527 C   0  0  0  0  0  0  0  0  0  0  0  0
   -3.8115    1.9629   -0.2485 N   0  0  0  0  0  0  0  0  0  0  0  0
   -2.9346    1.1099   -0.8216 C   0  0  0  0  0  0  0  0  0  0  0  0
   -0.9945   -0.2376   -2.2504 O   0  0  0  0  0  0  0  0  0  0  0  0
    5.3201    1.6204   -0.7554 H   0  0  0  0  0  0  0  0  0  0  0  0
    6.1962    1.6129    0.7800 H   0  0  0  0  0  0  0  0  0  0  0  0
    4.7070    2.5584    0.6622 H   0  0  0  0  0  0  0  0  0  0  0  0
    3.0621   -1.4496    1.5272 H   0  0  0  0  0  0  0  0  0  0  0  0
    0.7511   -1.9404    0.9046 H   0  0  0  0  0  0  0  0  0  0  0  0
    0.7015    1.6116   -1.5646 H   0  0  0  0  0  0  0  0  0  0  0  0
    2.9987    2.0848   -0.9299 H   0  0  0  0  0  0  0  0  0  0  0  0
   -0.5879   -2.5761   -1.1387 H   0  0  0  0  0  0  0  0  0  0  0  0
   -2.4348   -1.8689    1.3161 H   0  0  0  0  0  0  0  0  0  0  0  0
   -1.7763   -3.4955    0.8710 H   0  0  0  0  0  0  0  0  0  0  0  0
   -2.9217   -3.3343   -1.3631 H   0  0  0  0  0  0  0  0  0  0  0  0
   -3.5613   -1.7000   -0.9162 H   0  0  0  0  0  0  0  0  0  0  0  0
   -1.0172    0.4402    1.8233 H   0  0  0  0  0  0  0  0  0  0  0  0
   -4.3030    2.8930    1.5354 H   0  0  0  0  0  0  0  0  0  0  0  0
   -3.1178    0.9222   -1.8772 H   0  0  0  0  0  0  0  0  0  0  0  0
   -0.2010   -0.6493   -2.6332 H   0  0  0  0  0  0  0  0  0  0  0  0
  1  2  1  0
  2  3  1  0
  3  4  2  0
  4  5  1  0
  5  6  2  0
  6  7  1  0
  7  8  2  0
  6  9  1  0
  9 10  1  0
 10 11  1  0
 11 12  1  0
  9 13  1  0
 13 14  2  0
 14 15  1  0
 15 16  2  0
 16 17  1  0
 17 18  2  0
  9 19  1  0
  8  3  1  0
 12 10  1  0
 18 13  1  0
  1 20  1  0
  1 21  1  0
  1 22  1  0
  4 23  1  0
  5 24  1  0
  7 25  1  0
  8 26  1  0
 10 27  1  0
 11 28  1  0
 11 29  1  0
 12 30  1  0
 12 31  1  0
 14 32  1  0
 16 33  1  0
 18 34  1  0
 19 35  1  0
M  END
>  <SMILES>  (45) 
COC1=CC=C(C=C1)C(C2CC2)(C3=CN=CN=C3)O

$$$$
anycymidol
     RDKit          3D

 35 37  0  0  0  0  0  0  0  0999 V2000
    5.3001   -0.7411    0.8478 C   0  0  0  0  0  0  0  0  0  0  0  0
    4.3341   -1.4380    0.0712 O   0  0  0  0  0  0  0  0  0  0  0  0
    3.0707   -0.9176    0.0414 C   0  0  0  0  0  0  0  0  0  0  0  0
    2.6447    0.2447    0.6798 C   0  0  0  0  0  0  0  0  0  0  0  0
    1.3131    0.6710    0.5670 C   0  0  0  0  0  0  0  0  0  0  0  0
    0.3763   -0.0555   -0.1865 C   0  0  0  0  0  0  0  0  0  0  0  0
    0.8276   -1.2271   -0.8262 C   0  0  0  0  0  0  0  0  0  0  0  0
    2.1547   -1.6493   -0.7119 C   0  0  0  0  0  0  0  0  0  0  0  0
   -1.0963    0.3592   -0.3483 C   0  0  0  0  0  0  0  0  0  0  0  0
   -1.4044    1.7075    0.2973 C   0  0  0  0  0  0  0  0  0  0  0  0
   -1.0727    3.0292   -0.3668 C   0  0  0  0  0  0  0  0  0  0  0  0
   -2.5075    2.6057   -0.2252 C   0  0  0  0  0  0  0  0  0  0  0  0
   -2.0654   -0.6553    0.2246 C   0  0  0  0  0  0  0  0  0  0  0  0
   -1.8802   -1.2643    1.4547 C   0  0  0  0  0  0  0  0  0  0  0  0
   -2.7408   -2.1447    2.0072 N   0  0  0  0  0  0  0  0  0  0  0  0
   -3.8355   -2.4166    1.2833 C   0  0  0  0  0  0  0  0  0  0  0  0
   -4.1389   -1.8914    0.0887 N   0  0  0  0  0  0  0  0  0  0  0  0
   -3.2403   -1.0153   -0.4106 C   0  0  0  0  0  0  0  0  0  0  0  0
   -1.3294    0.4749   -1.7601 O   0  0  0  0  0  0  0  0  0  0  0  0
    5.0114   -0.7112    1.9036 H   0  0  0  0  0  0  0  0  0  0  0  0
    5.4690    0.2669    0.4549 H   0  0  0  0  0  0  0  0  0  0  0  0
    6.2448   -1.2887    0.7764 H   0  0  0  0  0  0  0  0  0  0  0  0
    3.3223    0.8481    1.2755 H   0  0  0  0  0  0  0  0  0  0  0  0
    1.0352    1.5860    1.0845 H   0  0  0  0  0  0  0  0  0  0  0  0
    0.1393   -1.8261   -1.4225 H   0  0  0  0  0  0  0  0  0  0  0  0
    2.4748   -2.5593   -1.2143 H   0  0  0  0  0  0  0  0  0  0  0  0
   -1.3113    1.6668    1.3801 H   0  0  0  0  0  0  0  0  0  0  0  0
   -0.6474    3.0340   -1.3633 H   0  0  0  0  0  0  0  0  0  0  0  0
   -0.7216    3.8395    0.2626 H   0  0  0  0  0  0  0  0  0  0  0  0
   -3.1243    3.1232    0.5012 H   0  0  0  0  0  0  0  0  0  0  0  0
   -3.0415    2.3158   -1.1236 H   0  0  0  0  0  0  0  0  0  0  0  0
   -1.0037   -1.0590    2.0645 H   0  0  0  0  0  0  0  0  0  0  0  0
   -4.5410   -3.1245    1.7035 H   0  0  0  0  0  0  0  0  0  0  0  0
   -3.5115   -0.5946   -1.3761 H   0  0  0  0  0  0  0  0  0  0  0  0
   -0.5043    0.8069   -2.1525 H   0  0  0  0  0  0  0  0  0  0  0  0
  1  2  1  0
  2  3  1  0
  3  4  2  0
  4  5  1  0
  5  6  2  0
  6  7  1  0
  7  8  2  0
  6  9  1  0
  9 10  1  0
 10 11  1  0
 11 12  1  0
  9 13  1  0
 13 14  2  0
 14 15  1  0
 15 16  2  0
 16 17  1  0
 17 18  2  0
  9 19  1  0
  8  3  1  0
 12 10  1  0
 18 13  1  0
  1 20  1  0
  1 21  1  0
  1 22  1  0
  4 23  1  0
  5 24  1  0
  7 25  1  0
  8 26  1  0
 10 27  1  0
 11 28  1  0
 11 29  1  0
 12 30  1  0
 12 31  1  0
 14 32  1  0
 16 33  1  0
 18 34  1  0
 19 35  1  0
M  END
>  <SMILES>  (46) 
COC1=CC=C(C=C1)C(C2CC2)(C3=CN=CN=C3)O

$$$$
anycymidol
     RDKit          3D

 35 37  0  0  0  0  0  0  0  0999 V2000
    5.3534    0.7215   -0.0545 C   0  0  0  0  0  0  0  0  0  0  0  0
    4.4082    0.7209    1.0082 O   0  0  0  0  0  0  0  0  0  0  0  0
    3.1197    0.3957    0.6886 C   0  0  0  0  0  0  0  0  0  0  0  0
    2.2236    0.4386    1.7567 C   0  0  0  0  0  0  0  0  0  0  0  0
    0.8702    0.1308    1.5760 C   0  0  0  0  0  0  0  0  0  0  0  0
    0.3775   -0.2301    0.3131 C   0  0  0  0  0  0  0  0  0  0  0  0
    1.2982   -0.2734   -0.7550 C   0  0  0  0  0  0  0  0  0  0  0  0
    2.6512    0.0366   -0.5715 C   0  0  0  0  0  0  0  0  0  0  0  0
   -1.0951   -0.5803    0.0399 C   0  0  0  0  0  0  0  0  0  0  0  0
   -1.9461   -0.5922    1.3064 C   0  0  0  0  0  0  0  0  0  0  0  0
   -1.9695   -1.7627    2.2694 C   0  0  0  0  0  0  0  0  0  0  0  0
   -3.1783   -1.4660    1.4276 C   0  0  0  0  0  0  0  0  0  0  0  0
   -1.7547    0.3616   -0.9473 C   0  0  0  0  0  0  0  0  0  0  0  0
   -2.5974   -0.0730   -1.9545 C   0  0  0  0  0  0  0  0  0  0  0  0
   -3.2213    0.7435   -2.8310 N   0  0  0  0  0  0  0  0  0  0  0  0
   -2.9867    2.0530   -2.6726 C   0  0  0  0  0  0  0  0  0  0  0  0
   -2.2041    2.6043   -1.7345 N   0  0  0  0  0  0  0  0  0  0  0  0
   -1.6070    1.7375   -0.8899 C   0  0  0  0  0  0  0  0  0  0  0  0
   -1.0942   -1.9047   -0.5140 O   0  0  0  0  0  0  0  0  0  0  0  0
    5.0850    1.4553   -0.8218 H   0  0  0  0  0  0  0  0  0  0  0  0
    5.4632   -0.2794   -0.4849 H   0  0  0  0  0  0  0  0  0  0  0  0
    6.3229    1.0134    0.3606 H   0  0  0  0  0  0  0  0  0  0  0  0
    2.5832    0.7168    2.7452 H   0  0  0  0  0  0  0  0  0  0  0  0
    0.2232    0.1820    2.4478 H   0  0  0  0  0  0  0  0  0  0  0  0
    0.9590   -0.5515   -1.7534 H   0  0  0  0  0  0  0  0  0  0  0  0
    3.3066   -0.0129   -1.4348 H   0  0  0  0  0  0  0  0  0  0  0  0
   -2.0340    0.4005    1.7422 H   0  0  0  0  0  0  0  0  0  0  0  0
   -2.0277   -1.5454    3.3304 H   0  0  0  0  0  0  0  0  0  0  0  0
   -1.4039   -2.6573    2.0377 H   0  0  0  0  0  0  0  0  0  0  0  0
   -3.4173   -2.1536    0.6236 H   0  0  0  0  0  0  0  0  0  0  0  0
   -4.0504   -1.0447    1.9155 H   0  0  0  0  0  0  0  0  0  0  0  0
   -2.8102   -1.1302   -2.0953 H   0  0  0  0  0  0  0  0  0  0  0  0
   -3.4760    2.7284   -3.3654 H   0  0  0  0  0  0  0  0  0  0  0  0
   -0.9828    2.2113   -0.1360 H   0  0  0  0  0  0  0  0  0  0  0  0
   -0.3885   -2.3943   -0.0585 H   0  0  0  0  0  0  0  0  0  0  0  0
  1  2  1  0
  2  3  1  0
  3  4  2  0
  4  5  1  0
  5  6  2  0
  6  7  1  0
  7  8  2  0
  6  9  1  0
  9 10  1  0
 10 11  1  0
 11 12  1  0
  9 13  1  0
 13 14  2  0
 14 15  1  0
 15 16  2  0
 16 17  1  0
 17 18  2  0
  9 19  1  0
  8  3  1  0
 12 10  1  0
 18 13  1  0
  1 20  1  0
  1 21  1  0
  1 22  1  0
  4 23  1  0
  5 24  1  0
  7 25  1  0
  8 26  1  0
 10 27  1  0
 11 28  1  0
 11 29  1  0
 12 30  1  0
 12 31  1  0
 14 32  1  0
 16 33  1  0
 18 34  1  0
 19 35  1  0
M  END
>  <SMILES>  (47) 
COC1=CC=C(C=C1)C(C2CC2)(C3=CN=CN=C3)O

$$$$
anycymidol
     RDKit          3D

 35 37  0  0  0  0  0  0  0  0999 V2000
    5.3325   -1.1832   -0.1323 C   0  0  0  0  0  0  0  0  0  0  0  0
    4.5630   -0.1733    0.5085 O   0  0  0  0  0  0  0  0  0  0  0  0
    3.2434   -0.0892    0.1624 C   0  0  0  0  0  0  0  0  0  0  0  0
    2.5871   -0.8828   -0.7742 C   0  0  0  0  0  0  0  0  0  0  0  0
    1.2249   -0.6857   -1.0311 C   0  0  0  0  0  0  0  0  0  0  0  0
    0.4861    0.3143   -0.3664 C   0  0  0  0  0  0  0  0  0  0  0  0
    1.1616    1.0931    0.5868 C   0  0  0  0  0  0  0  0  0  0  0  0
    2.5233    0.8951    0.8397 C   0  0  0  0  0  0  0  0  0  0  0  0
   -1.0179    0.4716   -0.6650 C   0  0  0  0  0  0  0  0  0  0  0  0
   -1.5228    1.8608   -0.2818 C   0  0  0  0  0  0  0  0  0  0  0  0
   -2.2304    2.2113    1.0124 C   0  0  0  0  0  0  0  0  0  0  0  0
   -2.9940    2.2257   -0.2827 C   0  0  0  0  0  0  0  0  0  0  0  0
   -1.8370   -0.6571   -0.0738 C   0  0  0  0  0  0  0  0  0  0  0  0
   -1.6293   -1.1613    1.1994 C   0  0  0  0  0  0  0  0  0  0  0  0
   -2.3552   -2.1534    1.7576 N   0  0  0  0  0  0  0  0  0  0  0  0
   -3.3298   -2.6604    0.9906 C   0  0  0  0  0  0  0  0  0  0  0  0
   -3.6354   -2.2678   -0.2528 N   0  0  0  0  0  0  0  0  0  0  0  0
   -2.8744   -1.2707   -0.7545 C   0  0  0  0  0  0  0  0  0  0  0  0
   -1.1557    0.4230   -2.0955 O   0  0  0  0  0  0  0  0  0  0  0  0
    5.3797   -1.0165   -1.2136 H   0  0  0  0  0  0  0  0  0  0  0  0
    4.9448   -2.1811    0.0980 H   0  0  0  0  0  0  0  0  0  0  0  0
    6.3529   -1.1243    0.2583 H   0  0  0  0  0  0  0  0  0  0  0  0
    3.0996   -1.6683   -1.3198 H   0  0  0  0  0  0  0  0  0  0  0  0
    0.7331   -1.3332   -1.7576 H   0  0  0  0  0  0  0  0  0  0  0  0
    0.6466    1.8624    1.1572 H   0  0  0  0  0  0  0  0  0  0  0  0
    3.0274    1.5128    1.5800 H   0  0  0  0  0  0  0  0  0  0  0  0
   -0.8754    2.6274   -0.7055 H   0  0  0  0  0  0  0  0  0  0  0  0
   -2.4871    1.4431    1.7311 H   0  0  0  0  0  0  0  0  0  0  0  0
   -2.0002    3.1673    1.4715 H   0  0  0  0  0  0  0  0  0  0  0  0
   -3.7421    1.4577   -0.4382 H   0  0  0  0  0  0  0  0  0  0  0  0
   -3.2749    3.1881   -0.6973 H   0  0  0  0  0  0  0  0  0  0  0  0
   -0.8479   -0.7702    1.8461 H   0  0  0  0  0  0  0  0  0  0  0  0
   -3.9256   -3.4604    1.4153 H   0  0  0  0  0  0  0  0  0  0  0  0
   -3.1432   -0.9672   -1.7638 H   0  0  0  0  0  0  0  0  0  0  0  0
   -0.4274    0.9523   -2.4631 H   0  0  0  0  0  0  0  0  0  0  0  0
  1  2  1  0
  2  3  1  0
  3  4  2  0
  4  5  1  0
  5  6  2  0
  6  7  1  0
  7  8  2  0
  6  9  1  0
  9 10  1  0
 10 11  1  0
 11 12  1  0
  9 13  1  0
 13 14  2  0
 14 15  1  0
 15 16  2  0
 16 17  1  0
 17 18  2  0
  9 19  1  0
  8  3  1  0
 12 10  1  0
 18 13  1  0
  1 20  1  0
  1 21  1  0
  1 22  1  0
  4 23  1  0
  5 24  1  0
  7 25  1  0
  8 26  1  0
 10 27  1  0
 11 28  1  0
 11 29  1  0
 12 30  1  0
 12 31  1  0
 14 32  1  0
 16 33  1  0
 18 34  1  0
 19 35  1  0
M  END
>  <SMILES>  (48) 
COC1=CC=C(C=C1)C(C2CC2)(C3=CN=CN=C3)O

$$$$
anycymidol
     RDKit          3D

 35 37  0  0  0  0  0  0  0  0999 V2000
    5.2588    0.3609    0.3811 C   0  0  0  0  0  0  0  0  0  0  0  0
    4.1051    0.6468    1.1614 O   0  0  0  0  0  0  0  0  0  0  0  0
    2.8921    0.3854    0.5875 C   0  0  0  0  0  0  0  0  0  0  0  0
    2.6809   -0.1585   -0.6763 C   0  0  0  0  0  0  0  0  0  0  0  0
    1.3772   -0.3761   -1.1417 C   0  0  0  0  0  0  0  0  0  0  0  0
    0.2514   -0.0562   -0.3597 C   0  0  0  0  0  0  0  0  0  0  0  0
    0.4872    0.4902    0.9149 C   0  0  0  0  0  0  0  0  0  0  0  0
    1.7894    0.7067    1.3780 C   0  0  0  0  0  0  0  0  0  0  0  0
   -1.1736   -0.3049   -0.8793 C   0  0  0  0  0  0  0  0  0  0  0  0
   -1.7666   -1.6359   -0.4169 C   0  0  0  0  0  0  0  0  0  0  0  0
   -1.4382   -2.3358    0.8866 C   0  0  0  0  0  0  0  0  0  0  0  0
   -0.9716   -2.9255   -0.4156 C   0  0  0  0  0  0  0  0  0  0  0  0
   -2.1041    0.8570   -0.5767 C   0  0  0  0  0  0  0  0  0  0  0  0
   -3.0660    0.8553    0.4180 C   0  0  0  0  0  0  0  0  0  0  0  0
   -3.8760    1.8984    0.6956 N   0  0  0  0  0  0  0  0  0  0  0  0
   -3.6938    2.9941   -0.0546 C   0  0  0  0  0  0  0  0  0  0  0  0
   -2.7897    3.1327   -1.0327 N   0  0  0  0  0  0  0  0  0  0  0  0
   -2.0064    2.0581   -1.2617 C   0  0  0  0  0  0  0  0  0  0  0  0
   -1.1158   -0.4068   -2.3132 O   0  0  0  0  0  0  0  0  0  0  0  0
    5.3286   -0.7087    0.1574 H   0  0  0  0  0  0  0  0  0  0  0  0
    5.2741    0.9592   -0.5360 H   0  0  0  0  0  0  0  0  0  0  0  0
    6.1382    0.6352    0.9718 H   0  0  0  0  0  0  0  0  0  0  0  0
    3.5039   -0.4269   -1.3300 H   0  0  0  0  0  0  0  0  0  0  0  0
    1.2475   -0.8053   -2.1342 H   0  0  0  0  0  0  0  0  0  0  0  0
   -0.3376    0.7548    1.5726 H   0  0  0  0  0  0  0  0  0  0  0  0
    1.9438    1.1323    2.3669 H   0  0  0  0  0  0  0  0  0  0  0  0
   -2.7880   -1.7446   -0.7791 H   0  0  0  0  0  0  0  0  0  0  0  0
   -0.6789   -1.9425    1.5509 H   0  0  0  0  0  0  0  0  0  0  0  0
   -2.2443   -2.8417    1.4079 H   0  0  0  0  0  0  0  0  0  0  0  0
   -1.4635   -3.8239   -0.7727 H   0  0  0  0  0  0  0  0  0  0  0  0
    0.0904   -2.9023   -0.6293 H   0  0  0  0  0  0  0  0  0  0  0  0
   -3.2288   -0.0063    1.0598 H   0  0  0  0  0  0  0  0  0  0  0  0
   -4.3339    3.8450    0.1501 H   0  0  0  0  0  0  0  0  0  0  0  0
   -1.2639    2.1984   -2.0453 H   0  0  0  0  0  0  0  0  0  0  0  0
   -2.0284   -0.5084   -2.6306 H   0  0  0  0  0  0  0  0  0  0  0  0
  1  2  1  0
  2  3  1  0
  3  4  2  0
  4  5  1  0
  5  6  2  0
  6  7  1  0
  7  8  2  0
  6  9  1  0
  9 10  1  0
 10 11  1  0
 11 12  1  0
  9 13  1  0
 13 14  2  0
 14 15  1  0
 15 16  2  0
 16 17  1  0
 17 18  2  0
  9 19  1  0
  8  3  1  0
 12 10  1  0
 18 13  1  0
  1 20  1  0
  1 21  1  0
  1 22  1  0
  4 23  1  0
  5 24  1  0
  7 25  1  0
  8 26  1  0
 10 27  1  0
 11 28  1  0
 11 29  1  0
 12 30  1  0
 12 31  1  0
 14 32  1  0
 16 33  1  0
 18 34  1  0
 19 35  1  0
M  END
>  <SMILES>  (49) 
COC1=CC=C(C=C1)C(C2CC2)(C3=CN=CN=C3)O

$$$$
anycymidol
     RDKit          3D

 35 37  0  0  0  0  0  0  0  0999 V2000
    5.2836    0.4199   -0.9353 C   0  0  0  0  0  0  0  0  0  0  0  0
    4.1494    0.3838   -1.7921 O   0  0  0  0  0  0  0  0  0  0  0  0
    2.9353    0.1654   -1.2039 C   0  0  0  0  0  0  0  0  0  0  0  0
    2.7055   -0.0497    0.1530 C   0  0  0  0  0  0  0  0  0  0  0  0
    1.4034   -0.2632    0.6288 C   0  0  0  0  0  0  0  0  0  0  0  0
    0.3005   -0.2660   -0.2411 C   0  0  0  0  0  0  0  0  0  0  0  0
    0.5542   -0.0486   -1.6100 C   0  0  0  0  0  0  0  0  0  0  0  0
    1.8524    0.1638   -2.0811 C   0  0  0  0  0  0  0  0  0  0  0  0
   -1.1498   -0.4937    0.2187 C   0  0  0  0  0  0  0  0  0  0  0  0
   -1.2519   -0.8357    1.7027 C   0  0  0  0  0  0  0  0  0  0  0  0
   -0.9772   -2.2245    2.2446 C   0  0  0  0  0  0  0  0  0  0  0  0
   -2.3808   -1.6881    2.2464 C   0  0  0  0  0  0  0  0  0  0  0  0
   -2.0490    0.6985   -0.0397 C   0  0  0  0  0  0  0  0  0  0  0  0
   -1.6687    2.0026    0.2304 C   0  0  0  0  0  0  0  0  0  0  0  0
   -2.4578    3.0813    0.0439 N   0  0  0  0  0  0  0  0  0  0  0  0
   -3.6838    2.8264   -0.4339 C   0  0  0  0  0  0  0  0  0  0  0  0
   -4.1780    1.6160   -0.7264 N   0  0  0  0  0  0  0  0  0  0  0  0
   -3.3418    0.5763   -0.5162 C   0  0  0  0  0  0  0  0  0  0  0  0
   -1.6398   -1.6138   -0.5338 O   0  0  0  0  0  0  0  0  0  0  0  0
    5.2028    1.2335   -0.2069 H   0  0  0  0  0  0  0  0  0  0  0  0
    5.4323   -0.5440   -0.4374 H   0  0  0  0  0  0  0  0  0  0  0  0
    6.1645    0.6138   -1.5548 H   0  0  0  0  0  0  0  0  0  0  0  0
    3.5173   -0.0593    0.8732 H   0  0  0  0  0  0  0  0  0  0  0  0
    1.2817   -0.4275    1.6967 H   0  0  0  0  0  0  0  0  0  0  0  0
   -0.2680   -0.0411   -2.3256 H   0  0  0  0  0  0  0  0  0  0  0  0
    2.0186    0.3319   -3.1428 H   0  0  0  0  0  0  0  0  0  0  0  0
   -0.9573    0.0019    2.3308 H   0  0  0  0  0  0  0  0  0  0  0  0
   -0.7493   -3.0304    1.5572 H   0  0  0  0  0  0  0  0  0  0  0  0
   -0.4671   -2.3056    3.1982 H   0  0  0  0  0  0  0  0  0  0  0  0
   -3.0915   -2.1252    1.5534 H   0  0  0  0  0  0  0  0  0  0  0  0
   -2.8178   -1.4015    3.1966 H   0  0  0  0  0  0  0  0  0  0  0  0
   -0.6821    2.2376    0.6223 H   0  0  0  0  0  0  0  0  0  0  0  0
   -4.3361    3.6771   -0.5966 H   0  0  0  0  0  0  0  0  0  0  0  0
   -3.7669   -0.3968   -0.7512 H   0  0  0  0  0  0  0  0  0  0  0  0
   -0.8866   -2.2150   -0.6609 H   0  0  0  0  0  0  0  0  0  0  0  0
  1  2  1  0
  2  3  1  0
  3  4  2  0
  4  5  1  0
  5  6  2  0
  6  7  1  0
  7  8  2  0
  6  9  1  0
  9 10  1  0
 10 11  1  0
 11 12  1  0
  9 13  1  0
 13 14  2  0
 14 15  1  0
 15 16  2  0
 16 17  1  0
 17 18  2  0
  9 19  1  0
  8  3  1  0
 12 10  1  0
 18 13  1  0
  1 20  1  0
  1 21  1  0
  1 22  1  0
  4 23  1  0
  5 24  1  0
  7 25  1  0
  8 26  1  0
 10 27  1  0
 11 28  1  0
 11 29  1  0
 12 30  1  0
 12 31  1  0
 14 32  1  0
 16 33  1  0
 18 34  1  0
 19 35  1  0
M  END
>  <SMILES>  (50) 
COC1=CC=C(C=C1)C(C2CC2)(C3=CN=CN=C3)O

$$$$
anycymidol
     RDKit          3D

 35 37  0  0  0  0  0  0  0  0999 V2000
    5.2388   -0.5750   -0.3529 C   0  0  0  0  0  0  0  0  0  0  0  0
    4.0960   -1.3843   -0.1065 O   0  0  0  0  0  0  0  0  0  0  0  0
    2.8765   -0.7724   -0.1877 C   0  0  0  0  0  0  0  0  0  0  0  0
    1.7847   -1.6141    0.0158 C   0  0  0  0  0  0  0  0  0  0  0  0
    0.4775   -1.1187   -0.0386 C   0  0  0  0  0  0  0  0  0  0  0  0
    0.2232    0.2411   -0.2953 C   0  0  0  0  0  0  0  0  0  0  0  0
    1.3393    1.0744   -0.5010 C   0  0  0  0  0  0  0  0  0  0  0  0
    2.6487    0.5758   -0.4475 C   0  0  0  0  0  0  0  0  0  0  0  0
   -1.2120    0.7912   -0.3465 C   0  0  0  0  0  0  0  0  0  0  0  0
   -1.8174    1.0721    1.0286 C   0  0  0  0  0  0  0  0  0  0  0  0
   -1.0287    1.7284    2.1449 C   0  0  0  0  0  0  0  0  0  0  0  0
   -1.5094    0.3126    2.3029 C   0  0  0  0  0  0  0  0  0  0  0  0
   -2.1271   -0.0849   -1.1833 C   0  0  0  0  0  0  0  0  0  0  0  0
   -3.0192   -1.0063   -0.6628 C   0  0  0  0  0  0  0  0  0  0  0  0
   -3.8067   -1.8131   -1.4055 N   0  0  0  0  0  0  0  0  0  0  0  0
   -3.6794   -1.6855   -2.7337 C   0  0  0  0  0  0  0  0  0  0  0  0
   -2.8492   -0.8467   -3.3661 N   0  0  0  0  0  0  0  0  0  0  0  0
   -2.0877   -0.0669   -2.5683 C   0  0  0  0  0  0  0  0  0  0  0  0
   -1.1906    2.0626   -1.0185 O   0  0  0  0  0  0  0  0  0  0  0  0
    5.3284    0.2189    0.3959 H   0  0  0  0  0  0  0  0  0  0  0  0
    5.2201   -0.1624   -1.3671 H   0  0  0  0  0  0  0  0  0  0  0  0
    6.1243   -1.2125   -0.2694 H   0  0  0  0  0  0  0  0  0  0  0  0
    1.9506   -2.6703    0.2155 H   0  0  0  0  0  0  0  0  0  0  0  0
   -0.3380   -1.8195    0.1259 H   0  0  0  0  0  0  0  0  0  0  0  0
    1.2079    2.1325   -0.7169 H   0  0  0  0  0  0  0  0  0  0  0  0
    3.4642    1.2708   -0.6175 H   0  0  0  0  0  0  0  0  0  0  0  0
   -2.8385    1.4378    0.9190 H   0  0  0  0  0  0  0  0  0  0  0  0
   -1.5213    2.4963    2.7323 H   0  0  0  0  0  0  0  0  0  0  0  0
    0.0392    1.8811    2.0392 H   0  0  0  0  0  0  0  0  0  0  0  0
   -2.3269    0.1318    2.9936 H   0  0  0  0  0  0  0  0  0  0  0  0
   -0.7584   -0.4670    2.3177 H   0  0  0  0  0  0  0  0  0  0  0  0
   -3.1377   -1.1480    0.4077 H   0  0  0  0  0  0  0  0  0  0  0  0
   -4.3033   -2.3207   -3.3524 H   0  0  0  0  0  0  0  0  0  0  0  0
   -1.4133    0.6009   -3.1005 H   0  0  0  0  0  0  0  0  0  0  0  0
   -1.0546    2.7398   -0.3357 H   0  0  0  0  0  0  0  0  0  0  0  0
  1  2  1  0
  2  3  1  0
  3  4  2  0
  4  5  1  0
  5  6  2  0
  6  7  1  0
  7  8  2  0
  6  9  1  0
  9 10  1  0
 10 11  1  0
 11 12  1  0
  9 13  1  0
 13 14  2  0
 14 15  1  0
 15 16  2  0
 16 17  1  0
 17 18  2  0
  9 19  1  0
  8  3  1  0
 12 10  1  0
 18 13  1  0
  1 20  1  0
  1 21  1  0
  1 22  1  0
  4 23  1  0
  5 24  1  0
  7 25  1  0
  8 26  1  0
 10 27  1  0
 11 28  1  0
 11 29  1  0
 12 30  1  0
 12 31  1  0
 14 32  1  0
 16 33  1  0
 18 34  1  0
 19 35  1  0
M  END
>  <SMILES>  (51) 
COC1=CC=C(C=C1)C(C2CC2)(C3=CN=CN=C3)O

$$$$
anycymidol
     RDKit          3D

 35 37  0  0  0  0  0  0  0  0999 V2000
    5.3922   -0.5973   -0.5392 C   0  0  0  0  0  0  0  0  0  0  0  0
    4.4016    0.2727   -1.0718 O   0  0  0  0  0  0  0  0  0  0  0  0
    3.1130    0.0617   -0.6665 C   0  0  0  0  0  0  0  0  0  0  0  0
    2.6769   -0.9388    0.1986 C   0  0  0  0  0  0  0  0  0  0  0  0
    1.3199   -1.0420    0.5313 C   0  0  0  0  0  0  0  0  0  0  0  0
    0.3685   -0.1450    0.0147 C   0  0  0  0  0  0  0  0  0  0  0  0
    0.8250    0.8513   -0.8673 C   0  0  0  0  0  0  0  0  0  0  0  0
    2.1800    0.9523   -1.1974 C   0  0  0  0  0  0  0  0  0  0  0  0
   -1.1228   -0.2740    0.3644 C   0  0  0  0  0  0  0  0  0  0  0  0
   -1.8072   -0.9708   -0.8088 C   0  0  0  0  0  0  0  0  0  0  0  0
   -1.8130   -2.4799   -0.9412 C   0  0  0  0  0  0  0  0  0  0  0  0
   -3.0989   -1.7522   -0.6675 C   0  0  0  0  0  0  0  0  0  0  0  0
   -1.7637    1.0549    0.7157 C   0  0  0  0  0  0  0  0  0  0  0  0
   -1.3113    1.7972    1.7967 C   0  0  0  0  0  0  0  0  0  0  0  0
   -1.8297    2.9821    2.1804 N   0  0  0  0  0  0  0  0  0  0  0  0
   -2.8433    3.4402    1.4354 C   0  0  0  0  0  0  0  0  0  0  0  0
   -3.3719    2.8246    0.3687 N   0  0  0  0  0  0  0  0  0  0  0  0
   -2.8144    1.6413    0.0348 C   0  0  0  0  0  0  0  0  0  0  0  0
   -1.2595   -1.1039    1.5281 O   0  0  0  0  0  0  0  0  0  0  0  0
    5.2138   -1.6331   -0.8463 H   0  0  0  0  0  0  0  0  0  0  0  0
    5.4491   -0.5115    0.5510 H   0  0  0  0  0  0  0  0  0  0  0  0
    6.3602   -0.2915   -0.9478 H   0  0  0  0  0  0  0  0  0  0  0  0
    3.3615   -1.6595    0.6329 H   0  0  0  0  0  0  0  0  0  0  0  0
    1.0097   -1.8400    1.2042 H   0  0  0  0  0  0  0  0  0  0  0  0
    0.1332    1.5651   -1.3100 H   0  0  0  0  0  0  0  0  0  0  0  0
    2.5110    1.7345   -1.8767 H   0  0  0  0  0  0  0  0  0  0  0  0
   -1.6671   -0.4233   -1.7384 H   0  0  0  0  0  0  0  0  0  0  0  0
   -1.6615   -2.8996   -1.9296 H   0  0  0  0  0  0  0  0  0  0  0  0
   -1.3840   -3.0769   -0.1437 H   0  0  0  0  0  0  0  0  0  0  0  0
   -3.5485   -1.8819    0.3094 H   0  0  0  0  0  0  0  0  0  0  0  0
   -3.8217   -1.6882   -1.4741 H   0  0  0  0  0  0  0  0  0  0  0  0
   -0.4856    1.4445    2.4126 H   0  0  0  0  0  0  0  0  0  0  0  0
   -3.2750    4.3929    1.7207 H   0  0  0  0  0  0  0  0  0  0  0  0
   -3.2726    1.1785   -0.8345 H   0  0  0  0  0  0  0  0  0  0  0  0
   -2.1639   -0.9845    1.8613 H   0  0  0  0  0  0  0  0  0  0  0  0
  1  2  1  0
  2  3  1  0
  3  4  2  0
  4  5  1  0
  5  6  2  0
  6  7  1  0
  7  8  2  0
  6  9  1  0
  9 10  1  0
 10 11  1  0
 11 12  1  0
  9 13  1  0
 13 14  2  0
 14 15  1  0
 15 16  2  0
 16 17  1  0
 17 18  2  0
  9 19  1  0
  8  3  1  0
 12 10  1  0
 18 13  1  0
  1 20  1  0
  1 21  1  0
  1 22  1  0
  4 23  1  0
  5 24  1  0
  7 25  1  0
  8 26  1  0
 10 27  1  0
 11 28  1  0
 11 29  1  0
 12 30  1  0
 12 31  1  0
 14 32  1  0
 16 33  1  0
 18 34  1  0
 19 35  1  0
M  END
>  <SMILES>  (52) 
COC1=CC=C(C=C1)C(C2CC2)(C3=CN=CN=C3)O

$$$$
anycymidol
     RDKit          3D

 35 37  0  0  0  0  0  0  0  0999 V2000
    5.2264   -0.4970    0.9003 C   0  0  0  0  0  0  0  0  0  0  0  0
    4.5498    0.4878    0.1296 O   0  0  0  0  0  0  0  0  0  0  0  0
    3.1884    0.3864    0.0551 C   0  0  0  0  0  0  0  0  0  0  0  0
    2.3999   -0.5717    0.6879 C   0  0  0  0  0  0  0  0  0  0  0  0
    1.0081   -0.5599    0.5260 C   0  0  0  0  0  0  0  0  0  0  0  0
    0.3728    0.4044   -0.2802 C   0  0  0  0  0  0  0  0  0  0  0  0
    1.1836    1.3695   -0.8995 C   0  0  0  0  0  0  0  0  0  0  0  0
    2.5720    1.3563   -0.7350 C   0  0  0  0  0  0  0  0  0  0  0  0
   -1.1561    0.4257   -0.4402 C   0  0  0  0  0  0  0  0  0  0  0  0
   -1.7358    1.0759    0.8134 C   0  0  0  0  0  0  0  0  0  0  0  0
   -1.8331    2.5812    0.9530 C   0  0  0  0  0  0  0  0  0  0  0  0
   -3.0878    1.7620    0.8396 C   0  0  0  0  0  0  0  0  0  0  0  0
   -1.7390   -0.9474   -0.7148 C   0  0  0  0  0  0  0  0  0  0  0  0
   -1.3734   -1.6597   -1.8476 C   0  0  0  0  0  0  0  0  0  0  0  0
   -1.8467   -2.8821   -2.1669 N   0  0  0  0  0  0  0  0  0  0  0  0
   -2.7223   -3.4092   -1.3022 C   0  0  0  0  0  0  0  0  0  0  0  0
   -3.1556   -2.8288   -0.1746 N   0  0  0  0  0  0  0  0  0  0  0  0
   -2.6498   -1.6056    0.0907 C   0  0  0  0  0  0  0  0  0  0  0  0
   -1.4966    1.2384   -1.5733 O   0  0  0  0  0  0  0  0  0  0  0  0
    5.0640   -1.4997    0.4912 H   0  0  0  0  0  0  0  0  0  0  0  0
    6.2987   -0.2853    0.8461 H   0  0  0  0  0  0  0  0  0  0  0  0
    4.9300   -0.4459    1.9532 H   0  0  0  0  0  0  0  0  0  0  0  0
    2.8323   -1.3428    1.3167 H   0  0  0  0  0  0  0  0  0  0  0  0
    0.4255   -1.3215    1.0414 H   0  0  0  0  0  0  0  0  0  0  0  0
    0.7400    2.1468   -1.5190 H   0  0  0  0  0  0  0  0  0  0  0  0
    3.1772    2.1126   -1.2292 H   0  0  0  0  0  0  0  0  0  0  0  0
   -1.4408    0.5438    1.7151 H   0  0  0  0  0  0  0  0  0  0  0  0
   -1.5513    3.2041    0.1109 H   0  0  0  0  0  0  0  0  0  0  0  0
   -1.5889    3.0150    1.9164 H   0  0  0  0  0  0  0  0  0  0  0  0
   -3.6647    1.8556   -0.0725 H   0  0  0  0  0  0  0  0  0  0  0  0
   -3.6970    1.6500    1.7302 H   0  0  0  0  0  0  0  0  0  0  0  0
   -0.6607   -1.2500   -2.5616 H   0  0  0  0  0  0  0  0  0  0  0  0
   -3.1158   -4.3923   -1.5352 H   0  0  0  0  0  0  0  0  0  0  0  0
   -3.0280   -1.1728    1.0123 H   0  0  0  0  0  0  0  0  0  0  0  0
   -2.4253    1.0561   -1.7902 H   0  0  0  0  0  0  0  0  0  0  0  0
  1  2  1  0
  2  3  1  0
  3  4  2  0
  4  5  1  0
  5  6  2  0
  6  7  1  0
  7  8  2  0
  6  9  1  0
  9 10  1  0
 10 11  1  0
 11 12  1  0
  9 13  1  0
 13 14  2  0
 14 15  1  0
 15 16  2  0
 16 17  1  0
 17 18  2  0
  9 19  1  0
  8  3  1  0
 12 10  1  0
 18 13  1  0
  1 20  1  0
  1 21  1  0
  1 22  1  0
  4 23  1  0
  5 24  1  0
  7 25  1  0
  8 26  1  0
 10 27  1  0
 11 28  1  0
 11 29  1  0
 12 30  1  0
 12 31  1  0
 14 32  1  0
 16 33  1  0
 18 34  1  0
 19 35  1  0
M  END
>  <SMILES>  (53) 
COC1=CC=C(C=C1)C(C2CC2)(C3=CN=CN=C3)O

$$$$
anycymidol
     RDKit          3D

 35 37  0  0  0  0  0  0  0  0999 V2000
   -5.3061    1.0095   -0.1457 C   0  0  0  0  0  0  0  0  0  0  0  0
   -4.4799    0.1029   -0.8655 O   0  0  0  0  0  0  0  0  0  0  0  0
   -3.1660    0.0370   -0.4946 C   0  0  0  0  0  0  0  0  0  0  0  0
   -2.5671    0.7502    0.5394 C   0  0  0  0  0  0  0  0  0  0  0  0
   -1.2037    0.5824    0.8097 C   0  0  0  0  0  0  0  0  0  0  0  0
   -0.4021   -0.2986    0.0536 C   0  0  0  0  0  0  0  0  0  0  0  0
   -1.0253   -1.0108   -0.9820 C   0  0  0  0  0  0  0  0  0  0  0  0
   -2.3889   -0.8423   -1.2488 C   0  0  0  0  0  0  0  0  0  0  0  0
    1.0897   -0.4321    0.4035 C   0  0  0  0  0  0  0  0  0  0  0  0
    1.8006   -1.4955   -0.4285 C   0  0  0  0  0  0  0  0  0  0  0  0
    3.0091   -2.2414    0.1002 C   0  0  0  0  0  0  0  0  0  0  0  0
    1.7162   -2.9761   -0.1147 C   0  0  0  0  0  0  0  0  0  0  0  0
    1.8550    0.8658    0.2401 C   0  0  0  0  0  0  0  0  0  0  0  0
    1.7080    1.6937   -0.8605 C   0  0  0  0  0  0  0  0  0  0  0  0
    2.3955    2.8394   -1.0499 N   0  0  0  0  0  0  0  0  0  0  0  0
    3.2713    3.1556   -0.0859 C   0  0  0  0  0  0  0  0  0  0  0  0
    3.5158    2.4401    1.0201 N   0  0  0  0  0  0  0  0  0  0  0  0
    2.7984    1.3034    1.1522 C   0  0  0  0  0  0  0  0  0  0  0  0
    1.1423   -0.8298    1.7819 O   0  0  0  0  0  0  0  0  0  0  0  0
   -5.3738    0.7278    0.9103 H   0  0  0  0  0  0  0  0  0  0  0  0
   -4.9541    2.0403   -0.2588 H   0  0  0  0  0  0  0  0  0  0  0  0
   -6.3131    0.9532   -0.5702 H   0  0  0  0  0  0  0  0  0  0  0  0
   -3.1269    1.4455    1.1561 H   0  0  0  0  0  0  0  0  0  0  0  0
   -0.7610    1.1544    1.6259 H   0  0  0  0  0  0  0  0  0  0  0  0
   -0.4748   -1.7110   -1.6048 H   0  0  0  0  0  0  0  0  0  0  0  0
   -2.8508   -1.4046   -2.0577 H   0  0  0  0  0  0  0  0  0  0  0  0
    1.8457   -1.2209   -1.4800 H   0  0  0  0  0  0  0  0  0  0  0  0
    3.3297   -2.0677    1.1217 H   0  0  0  0  0  0  0  0  0  0  0  0
    3.8259   -2.4318   -0.5872 H   0  0  0  0  0  0  0  0  0  0  0  0
    1.6617   -3.6687   -0.9477 H   0  0  0  0  0  0  0  0  0  0  0  0
    1.1748   -3.3068    0.7636 H   0  0  0  0  0  0  0  0  0  0  0  0
    1.0090    1.4583   -1.6595 H   0  0  0  0  0  0  0  0  0  0  0  0
    3.8347    4.0731   -0.2134 H   0  0  0  0  0  0  0  0  0  0  0  0
    3.0204    0.7337    2.0516 H   0  0  0  0  0  0  0  0  0  0  0  0
    0.3898   -1.4284    1.9257 H   0  0  0  0  0  0  0  0  0  0  0  0
  1  2  1  0
  2  3  1  0
  3  4  2  0
  4  5  1  0
  5  6  2  0
  6  7  1  0
  7  8  2  0
  6  9  1  0
  9 10  1  0
 10 11  1  0
 11 12  1  0
  9 13  1  0
 13 14  2  0
 14 15  1  0
 15 16  2  0
 16 17  1  0
 17 18  2  0
  9 19  1  0
  8  3  1  0
 12 10  1  0
 18 13  1  0
  1 20  1  0
  1 21  1  0
  1 22  1  0
  4 23  1  0
  5 24  1  0
  7 25  1  0
  8 26  1  0
 10 27  1  0
 11 28  1  0
 11 29  1  0
 12 30  1  0
 12 31  1  0
 14 32  1  0
 16 33  1  0
 18 34  1  0
 19 35  1  0
M  END
>  <SMILES>  (54) 
COC1=CC=C(C=C1)C(C2CC2)(C3=CN=CN=C3)O

$$$$
anycymidol
     RDKit          3D

 35 37  0  0  0  0  0  0  0  0999 V2000
    5.2605    1.0694    0.5609 C   0  0  0  0  0  0  0  0  0  0  0  0
    4.4256    1.2274   -0.5792 O   0  0  0  0  0  0  0  0  0  0  0  0
    3.1601    0.7178   -0.4959 C   0  0  0  0  0  0  0  0  0  0  0  0
    2.6157    0.0429    0.5943 C   0  0  0  0  0  0  0  0  0  0  0  0
    1.2971   -0.4315    0.5484 C   0  0  0  0  0  0  0  0  0  0  0  0
    0.4961   -0.2519   -0.5930 C   0  0  0  0  0  0  0  0  0  0  0  0
    1.0585    0.4484   -1.6774 C   0  0  0  0  0  0  0  0  0  0  0  0
    2.3732    0.9195   -1.6287 C   0  0  0  0  0  0  0  0  0  0  0  0
   -0.9660   -0.7340   -0.6763 C   0  0  0  0  0  0  0  0  0  0  0  0
   -1.2304   -1.8821    0.2956 C   0  0  0  0  0  0  0  0  0  0  0  0
   -2.6212   -2.4211    0.5654 C   0  0  0  0  0  0  0  0  0  0  0  0
   -1.8577   -1.7433    1.6690 C   0  0  0  0  0  0  0  0  0  0  0  0
   -1.9518    0.4090   -0.5485 C   0  0  0  0  0  0  0  0  0  0  0  0
   -1.8131    1.4338    0.3728 C   0  0  0  0  0  0  0  0  0  0  0  0
   -2.6866    2.4524    0.5228 N   0  0  0  0  0  0  0  0  0  0  0  0
   -3.7424    2.4360   -0.3019 C   0  0  0  0  0  0  0  0  0  0  0  0
   -3.9960    1.5095   -1.2350 N   0  0  0  0  0  0  0  0  0  0  0  0
   -3.0863    0.5156   -1.3343 C   0  0  0  0  0  0  0  0  0  0  0  0
   -1.1309   -1.3239   -1.9770 O   0  0  0  0  0  0  0  0  0  0  0  0
    4.8397    1.5816    1.4325 H   0  0  0  0  0  0  0  0  0  0  0  0
    6.2254    1.5336    0.3357 H   0  0  0  0  0  0  0  0  0  0  0  0
    5.4418    0.0106    0.7734 H   0  0  0  0  0  0  0  0  0  0  0  0
    3.1867   -0.1293    1.5009 H   0  0  0  0  0  0  0  0  0  0  0  0
    0.9110   -0.9379    1.4305 H   0  0  0  0  0  0  0  0  0  0  0  0
    0.4680    0.6412   -2.5728 H   0  0  0  0  0  0  0  0  0  0  0  0
    2.7840    1.4558   -2.4812 H   0  0  0  0  0  0  0  0  0  0  0  0
   -0.4704   -2.6539    0.1823 H   0  0  0  0  0  0  0  0  0  0  0  0
   -2.7435   -3.4979    0.6173 H   0  0  0  0  0  0  0  0  0  0  0  0
   -3.4871   -1.9111    0.1606 H   0  0  0  0  0  0  0  0  0  0  0  0
   -1.4693   -2.3666    2.4679 H   0  0  0  0  0  0  0  0  0  0  0  0
   -2.2312   -0.7877    2.0154 H   0  0  0  0  0  0  0  0  0  0  0  0
   -0.9682    1.4753    1.0553 H   0  0  0  0  0  0  0  0  0  0  0  0
   -4.4568    3.2456   -0.2044 H   0  0  0  0  0  0  0  0  0  0  0  0
   -3.3149   -0.2255   -2.0970 H   0  0  0  0  0  0  0  0  0  0  0  0
   -0.3198   -1.8276   -2.1610 H   0  0  0  0  0  0  0  0  0  0  0  0
  1  2  1  0
  2  3  1  0
  3  4  2  0
  4  5  1  0
  5  6  2  0
  6  7  1  0
  7  8  2  0
  6  9  1  0
  9 10  1  0
 10 11  1  0
 11 12  1  0
  9 13  1  0
 13 14  2  0
 14 15  1  0
 15 16  2  0
 16 17  1  0
 17 18  2  0
  9 19  1  0
  8  3  1  0
 12 10  1  0
 18 13  1  0
  1 20  1  0
  1 21  1  0
  1 22  1  0
  4 23  1  0
  5 24  1  0
  7 25  1  0
  8 26  1  0
 10 27  1  0
 11 28  1  0
 11 29  1  0
 12 30  1  0
 12 31  1  0
 14 32  1  0
 16 33  1  0
 18 34  1  0
 19 35  1  0
M  END
>  <SMILES>  (55) 
COC1=CC=C(C=C1)C(C2CC2)(C3=CN=CN=C3)O

$$$$
anycymidol
     RDKit          3D

 35 37  0  0  0  0  0  0  0  0999 V2000
    5.4028    0.0576   -0.1392 C   0  0  0  0  0  0  0  0  0  0  0  0
    4.4548   -0.8515    0.4062 O   0  0  0  0  0  0  0  0  0  0  0  0
    3.1377   -0.6068    0.1352 C   0  0  0  0  0  0  0  0  0  0  0  0
    2.2441   -1.5064    0.7166 C   0  0  0  0  0  0  0  0  0  0  0  0
    0.8635   -1.3773    0.5257 C   0  0  0  0  0  0  0  0  0  0  0  0
    0.3402   -0.3376   -0.2573 C   0  0  0  0  0  0  0  0  0  0  0  0
    1.2581    0.5601   -0.8420 C   0  0  0  0  0  0  0  0  0  0  0  0
    2.6385    0.4295   -0.6480 C   0  0  0  0  0  0  0  0  0  0  0  0
   -1.1632   -0.1334   -0.5100 C   0  0  0  0  0  0  0  0  0  0  0  0
   -2.0217   -1.2390    0.0974 C   0  0  0  0  0  0  0  0  0  0  0  0
   -2.2140   -2.5882   -0.5665 C   0  0  0  0  0  0  0  0  0  0  0  0
   -3.3622   -1.6213   -0.4970 C   0  0  0  0  0  0  0  0  0  0  0  0
   -1.6784    1.1903    0.0184 C   0  0  0  0  0  0  0  0  0  0  0  0
   -1.3463    1.6826    1.2696 C   0  0  0  0  0  0  0  0  0  0  0  0
   -1.8112    2.8418    1.7808 N   0  0  0  0  0  0  0  0  0  0  0  0
   -2.6509    3.5271    0.9924 C   0  0  0  0  0  0  0  0  0  0  0  0
   -3.0590    3.1595   -0.2296 N   0  0  0  0  0  0  0  0  0  0  0  0
   -2.5610    1.9896   -0.6854 C   0  0  0  0  0  0  0  0  0  0  0  0
   -1.3357   -0.1614   -1.9350 O   0  0  0  0  0  0  0  0  0  0  0  0
    5.3809    0.0403   -1.2339 H   0  0  0  0  0  0  0  0  0  0  0  0
    6.3983   -0.2669    0.1788 H   0  0  0  0  0  0  0  0  0  0  0  0
    5.2445    1.0711    0.2442 H   0  0  0  0  0  0  0  0  0  0  0  0
    2.6273   -2.3202    1.3287 H   0  0  0  0  0  0  0  0  0  0  0  0
    0.2199   -2.1105    1.0048 H   0  0  0  0  0  0  0  0  0  0  0  0
    0.8953    1.3818   -1.4605 H   0  0  0  0  0  0  0  0  0  0  0  0
    3.2905    1.1550   -1.1231 H   0  0  0  0  0  0  0  0  0  0  0  0
   -1.9789   -1.2312    1.1842 H   0  0  0  0  0  0  0  0  0  0  0  0
   -1.7725   -2.7739   -1.5382 H   0  0  0  0  0  0  0  0  0  0  0  0
   -2.2538   -3.4654    0.0701 H   0  0  0  0  0  0  0  0  0  0  0  0
   -3.6835   -1.1487   -1.4188 H   0  0  0  0  0  0  0  0  0  0  0  0
   -4.1744   -1.8402    0.1874 H   0  0  0  0  0  0  0  0  0  0  0  0
   -0.6721    1.1445    1.9317 H   0  0  0  0  0  0  0  0  0  0  0  0
   -3.0366    4.4636    1.3794 H   0  0  0  0  0  0  0  0  0  0  0  0
   -2.9134    1.7061   -1.6745 H   0  0  0  0  0  0  0  0  0  0  0  0
   -0.7077   -0.8204   -2.2765 H   0  0  0  0  0  0  0  0  0  0  0  0
  1  2  1  0
  2  3  1  0
  3  4  2  0
  4  5  1  0
  5  6  2  0
  6  7  1  0
  7  8  2  0
  6  9  1  0
  9 10  1  0
 10 11  1  0
 11 12  1  0
  9 13  1  0
 13 14  2  0
 14 15  1  0
 15 16  2  0
 16 17  1  0
 17 18  2  0
  9 19  1  0
  8  3  1  0
 12 10  1  0
 18 13  1  0
  1 20  1  0
  1 21  1  0
  1 22  1  0
  4 23  1  0
  5 24  1  0
  7 25  1  0
  8 26  1  0
 10 27  1  0
 11 28  1  0
 11 29  1  0
 12 30  1  0
 12 31  1  0
 14 32  1  0
 16 33  1  0
 18 34  1  0
 19 35  1  0
M  END
>  <SMILES>  (56) 
COC1=CC=C(C=C1)C(C2CC2)(C3=CN=CN=C3)O

$$$$
anycymidol
     RDKit          3D

 35 37  0  0  0  0  0  0  0  0999 V2000
    5.2198    0.7416   -1.1828 C   0  0  0  0  0  0  0  0  0  0  0  0
    4.5597    0.1893   -0.0506 O   0  0  0  0  0  0  0  0  0  0  0  0
    3.2015    0.0589   -0.1303 C   0  0  0  0  0  0  0  0  0  0  0  0
    2.5954   -0.4580    1.0148 C   0  0  0  0  0  0  0  0  0  0  0  0
    1.2097   -0.6450    1.0760 C   0  0  0  0  0  0  0  0  0  0  0  0
    0.3911   -0.3170   -0.0150 C   0  0  0  0  0  0  0  0  0  0  0  0
    1.0208    0.1998   -1.1669 C   0  0  0  0  0  0  0  0  0  0  0  0
    2.4071    0.3872   -1.2246 C   0  0  0  0  0  0  0  0  0  0  0  0
   -1.1367   -0.4945   -0.0193 C   0  0  0  0  0  0  0  0  0  0  0  0
   -1.6595   -1.1590    1.2509 C   0  0  0  0  0  0  0  0  0  0  0  0
   -2.9298   -1.9855    1.2502 C   0  0  0  0  0  0  0  0  0  0  0  0
   -1.6048   -2.6571    1.4765 C   0  0  0  0  0  0  0  0  0  0  0  0
   -1.8844    0.8119   -0.1948 C   0  0  0  0  0  0  0  0  0  0  0  0
   -2.9891    0.9424   -1.0170 C   0  0  0  0  0  0  0  0  0  0  0  0
   -3.6924    2.0851   -1.1724 N   0  0  0  0  0  0  0  0  0  0  0  0
   -3.2617    3.1334   -0.4580 C   0  0  0  0  0  0  0  0  0  0  0  0
   -2.2162    3.1379    0.3807 N   0  0  0  0  0  0  0  0  0  0  0  0
   -1.5528    1.9680    0.4920 C   0  0  0  0  0  0  0  0  0  0  0  0
   -1.4357   -1.3518   -1.1314 O   0  0  0  0  0  0  0  0  0  0  0  0
    6.2889    0.7914   -0.9550 H   0  0  0  0  0  0  0  0  0  0  0  0
    5.0963    0.1012   -2.0624 H   0  0  0  0  0  0  0  0  0  0  0  0
    4.8741    1.7611   -1.3835 H   0  0  0  0  0  0  0  0  0  0  0  0
    3.2104   -0.7187    1.8737 H   0  0  0  0  0  0  0  0  0  0  0  0
    0.7983   -1.0521    1.9961 H   0  0  0  0  0  0  0  0  0  0  0  0
    0.4232    0.4659   -2.0394 H   0  0  0  0  0  0  0  0  0  0  0  0
    2.8287    0.7915   -2.1390 H   0  0  0  0  0  0  0  0  0  0  0  0
   -1.5145   -0.5280    2.1248 H   0  0  0  0  0  0  0  0  0  0  0  0
   -3.6011   -1.8808    2.0955 H   0  0  0  0  0  0  0  0  0  0  0  0
   -3.4375   -2.1698    0.3097 H   0  0  0  0  0  0  0  0  0  0  0  0
   -1.3830   -3.0114    2.4773 H   0  0  0  0  0  0  0  0  0  0  0  0
   -1.2290   -3.3028    0.6919 H   0  0  0  0  0  0  0  0  0  0  0  0
   -3.3624    0.1024   -1.5982 H   0  0  0  0  0  0  0  0  0  0  0  0
   -3.8100    4.0624   -0.5670 H   0  0  0  0  0  0  0  0  0  0  0  0
   -0.7132    1.9980    1.1825 H   0  0  0  0  0  0  0  0  0  0  0  0
   -0.7110   -1.9977   -1.1851 H   0  0  0  0  0  0  0  0  0  0  0  0
  1  2  1  0
  2  3  1  0
  3  4  2  0
  4  5  1  0
  5  6  2  0
  6  7  1  0
  7  8  2  0
  6  9  1  0
  9 10  1  0
 10 11  1  0
 11 12  1  0
  9 13  1  0
 13 14  2  0
 14 15  1  0
 15 16  2  0
 16 17  1  0
 17 18  2  0
  9 19  1  0
  8  3  1  0
 12 10  1  0
 18 13  1  0
  1 20  1  0
  1 21  1  0
  1 22  1  0
  4 23  1  0
  5 24  1  0
  7 25  1  0
  8 26  1  0
 10 27  1  0
 11 28  1  0
 11 29  1  0
 12 30  1  0
 12 31  1  0
 14 32  1  0
 16 33  1  0
 18 34  1  0
 19 35  1  0
M  END
>  <SMILES>  (57) 
COC1=CC=C(C=C1)C(C2CC2)(C3=CN=CN=C3)O

$$$$
anycymidol
     RDKit          3D

 35 37  0  0  0  0  0  0  0  0999 V2000
    5.1776    1.2795   -0.1379 C   0  0  0  0  0  0  0  0  0  0  0  0
    4.3308    1.1097    0.9916 O   0  0  0  0  0  0  0  0  0  0  0  0
    3.0301    0.7695    0.7433 C   0  0  0  0  0  0  0  0  0  0  0  0
    2.4646    0.5435   -0.5095 C   0  0  0  0  0  0  0  0  0  0  0  0
    1.1111    0.1987   -0.6215 C   0  0  0  0  0  0  0  0  0  0  0  0
    0.2888    0.0812    0.5158 C   0  0  0  0  0  0  0  0  0  0  0  0
    0.8803    0.3003    1.7705 C   0  0  0  0  0  0  0  0  0  0  0  0
    2.2315    0.6428    1.8795 C   0  0  0  0  0  0  0  0  0  0  0  0
   -1.1911   -0.3159    0.3902 C   0  0  0  0  0  0  0  0  0  0  0  0
   -1.2408   -1.8277    0.1845 C   0  0  0  0  0  0  0  0  0  0  0  0
   -2.4484   -2.6720    0.5425 C   0  0  0  0  0  0  0  0  0  0  0  0
   -1.1893   -2.7891    1.3542 C   0  0  0  0  0  0  0  0  0  0  0  0
   -1.9165    0.4508   -0.6990 C   0  0  0  0  0  0  0  0  0  0  0  0
   -2.5155   -0.1124   -1.8106 C   0  0  0  0  0  0  0  0  0  0  0  0
   -3.1566    0.5911   -2.7681 N   0  0  0  0  0  0  0  0  0  0  0  0
   -3.1937    1.9192   -2.5924 C   0  0  0  0  0  0  0  0  0  0  0  0
   -2.6569    2.5877   -1.5643 N   0  0  0  0  0  0  0  0  0  0  0  0
   -2.0266    1.8324   -0.6410 C   0  0  0  0  0  0  0  0  0  0  0  0
   -1.8657   -0.0013    1.6176 O   0  0  0  0  0  0  0  0  0  0  0  0
    4.8180    2.0873   -0.7839 H   0  0  0  0  0  0  0  0  0  0  0  0
    6.1696    1.5622    0.2275 H   0  0  0  0  0  0  0  0  0  0  0  0
    5.2829    0.3432   -0.6960 H   0  0  0  0  0  0  0  0  0  0  0  0
    3.0461    0.6246   -1.4218 H   0  0  0  0  0  0  0  0  0  0  0  0
    0.7072    0.0241   -1.6172 H   0  0  0  0  0  0  0  0  0  0  0  0
    0.2921    0.2050    2.6814 H   0  0  0  0  0  0  0  0  0  0  0  0
    2.6638    0.8114    2.8630 H   0  0  0  0  0  0  0  0  0  0  0  0
   -0.6746   -2.1327   -0.6927 H   0  0  0  0  0  0  0  0  0  0  0  0
   -2.7026   -3.4985   -0.1127 H   0  0  0  0  0  0  0  0  0  0  0  0
   -3.3076   -2.2135    1.0168 H   0  0  0  0  0  0  0  0  0  0  0  0
   -1.1913   -2.3876    2.3619 H   0  0  0  0  0  0  0  0  0  0  0  0
   -0.5891   -3.6855    1.2439 H   0  0  0  0  0  0  0  0  0  0  0  0
   -2.5101   -1.1832   -1.9925 H   0  0  0  0  0  0  0  0  0  0  0  0
   -3.7040    2.5040   -3.3495 H   0  0  0  0  0  0  0  0  0  0  0  0
   -1.5944    2.3949    0.1851 H   0  0  0  0  0  0  0  0  0  0  0  0
   -2.8196   -0.0438    1.4413 H   0  0  0  0  0  0  0  0  0  0  0  0
  1  2  1  0
  2  3  1  0
  3  4  2  0
  4  5  1  0
  5  6  2  0
  6  7  1  0
  7  8  2  0
  6  9  1  0
  9 10  1  0
 10 11  1  0
 11 12  1  0
  9 13  1  0
 13 14  2  0
 14 15  1  0
 15 16  2  0
 16 17  1  0
 17 18  2  0
  9 19  1  0
  8  3  1  0
 12 10  1  0
 18 13  1  0
  1 20  1  0
  1 21  1  0
  1 22  1  0
  4 23  1  0
  5 24  1  0
  7 25  1  0
  8 26  1  0
 10 27  1  0
 11 28  1  0
 11 29  1  0
 12 30  1  0
 12 31  1  0
 14 32  1  0
 16 33  1  0
 18 34  1  0
 19 35  1  0
M  END
>  <SMILES>  (58) 
COC1=CC=C(C=C1)C(C2CC2)(C3=CN=CN=C3)O

$$$$
anycymidol
     RDKit          3D

 35 37  0  0  0  0  0  0  0  0999 V2000
    5.3628    0.3196   -0.7668 C   0  0  0  0  0  0  0  0  0  0  0  0
    4.5490    0.8251    0.2839 O   0  0  0  0  0  0  0  0  0  0  0  0
    3.2347    0.4503    0.2829 C   0  0  0  0  0  0  0  0  0  0  0  0
    2.6109   -0.3589   -0.6620 C   0  0  0  0  0  0  0  0  0  0  0  0
    1.2476   -0.6647   -0.5428 C   0  0  0  0  0  0  0  0  0  0  0  0
    0.4728   -0.1789    0.5286 C   0  0  0  0  0  0  0  0  0  0  0  0
    1.1218    0.6488    1.4642 C   0  0  0  0  0  0  0  0  0  0  0  0
    2.4821    0.9528    1.3426 C   0  0  0  0  0  0  0  0  0  0  0  0
   -1.0405   -0.4697    0.6491 C   0  0  0  0  0  0  0  0  0  0  0  0
   -1.3727   -1.8197    0.0167 C   0  0  0  0  0  0  0  0  0  0  0  0
   -2.7841   -2.3188   -0.2259 C   0  0  0  0  0  0  0  0  0  0  0  0
   -1.8920   -2.0094   -1.3956 C   0  0  0  0  0  0  0  0  0  0  0  0
   -1.9003    0.6699    0.1297 C   0  0  0  0  0  0  0  0  0  0  0  0
   -3.1621    0.9431    0.6333 C   0  0  0  0  0  0  0  0  0  0  0  0
   -3.9642    1.9375    0.1995 N   0  0  0  0  0  0  0  0  0  0  0  0
   -3.4760    2.6807   -0.8015 C   0  0  0  0  0  0  0  0  0  0  0  0
   -2.2839    2.5156   -1.3886 N   0  0  0  0  0  0  0  0  0  0  0  0
   -1.5239    1.5088   -0.9060 C   0  0  0  0  0  0  0  0  0  0  0  0
   -1.2971   -0.6633    2.0499 O   0  0  0  0  0  0  0  0  0  0  0  0
    5.4086   -0.7742   -0.7400 H   0  0  0  0  0  0  0  0  0  0  0  0
    6.3780    0.6990   -0.6155 H   0  0  0  0  0  0  0  0  0  0  0  0
    5.0156    0.6776   -1.7417 H   0  0  0  0  0  0  0  0  0  0  0  0
    3.1517   -0.7691   -1.5086 H   0  0  0  0  0  0  0  0  0  0  0  0
    0.8037   -1.2905   -1.3138 H   0  0  0  0  0  0  0  0  0  0  0  0
    0.5812    1.0725    2.3067 H   0  0  0  0  0  0  0  0  0  0  0  0
    2.9583    1.5901    2.0843 H   0  0  0  0  0  0  0  0  0  0  0  0
   -0.6967   -2.5824    0.4029 H   0  0  0  0  0  0  0  0  0  0  0  0
   -2.9897   -3.3614   -0.0050 H   0  0  0  0  0  0  0  0  0  0  0  0
   -3.6360   -1.6740   -0.0575 H   0  0  0  0  0  0  0  0  0  0  0  0
   -2.1472   -1.1510   -2.0052 H   0  0  0  0  0  0  0  0  0  0  0  0
   -1.5040   -2.8457   -1.9678 H   0  0  0  0  0  0  0  0  0  0  0  0
   -3.5939    0.3418    1.4309 H   0  0  0  0  0  0  0  0  0  0  0  0
   -4.1014    3.4859   -1.1704 H   0  0  0  0  0  0  0  0  0  0  0  0
   -0.5678    1.4052   -1.4123 H   0  0  0  0  0  0  0  0  0  0  0  0
   -1.4452    0.2075    2.4509 H   0  0  0  0  0  0  0  0  0  0  0  0
  1  2  1  0
  2  3  1  0
  3  4  2  0
  4  5  1  0
  5  6  2  0
  6  7  1  0
  7  8  2  0
  6  9  1  0
  9 10  1  0
 10 11  1  0
 11 12  1  0
  9 13  1  0
 13 14  2  0
 14 15  1  0
 15 16  2  0
 16 17  1  0
 17 18  2  0
  9 19  1  0
  8  3  1  0
 12 10  1  0
 18 13  1  0
  1 20  1  0
  1 21  1  0
  1 22  1  0
  4 23  1  0
  5 24  1  0
  7 25  1  0
  8 26  1  0
 10 27  1  0
 11 28  1  0
 11 29  1  0
 12 30  1  0
 12 31  1  0
 14 32  1  0
 16 33  1  0
 18 34  1  0
 19 35  1  0
M  END
>  <SMILES>  (59) 
COC1=CC=C(C=C1)C(C2CC2)(C3=CN=CN=C3)O

$$$$
anycymidol
     RDKit          3D

 35 37  0  0  0  0  0  0  0  0999 V2000
    5.1680   -1.3107   -0.9184 C   0  0  0  0  0  0  0  0  0  0  0  0
    4.5427   -0.4355    0.0122 O   0  0  0  0  0  0  0  0  0  0  0  0
    3.1932   -0.2607   -0.1153 C   0  0  0  0  0  0  0  0  0  0  0  0
    2.6200    0.5812    0.8379 C   0  0  0  0  0  0  0  0  0  0  0  0
    1.2465    0.8504    0.8303 C   0  0  0  0  0  0  0  0  0  0  0  0
    0.4075    0.2798   -0.1384 C   0  0  0  0  0  0  0  0  0  0  0  0
    1.0043   -0.5651   -1.0979 C   0  0  0  0  0  0  0  0  0  0  0  0
    2.3783   -0.8338   -1.0868 C   0  0  0  0  0  0  0  0  0  0  0  0
   -1.1086    0.5294   -0.2080 C   0  0  0  0  0  0  0  0  0  0  0  0
   -1.5903    1.5429    0.8259 C   0  0  0  0  0  0  0  0  0  0  0  0
   -2.8144    2.4032    0.5851 C   0  0  0  0  0  0  0  0  0  0  0  0
   -1.4545    3.0405    0.6336 C   0  0  0  0  0  0  0  0  0  0  0  0
   -1.9260   -0.7339   -0.0277 C   0  0  0  0  0  0  0  0  0  0  0  0
   -3.0392   -1.0263   -0.7950 C   0  0  0  0  0  0  0  0  0  0  0  0
   -3.8033   -2.1291   -0.6395 N   0  0  0  0  0  0  0  0  0  0  0  0
   -3.4267   -2.9630    0.3392 C   0  0  0  0  0  0  0  0  0  0  0  0
   -2.3799   -2.7926    1.1586 N   0  0  0  0  0  0  0  0  0  0  0  0
   -1.6542   -1.6735    0.9529 C   0  0  0  0  0  0  0  0  0  0  0  0
   -1.3653    1.0639   -1.5155 O   0  0  0  0  0  0  0  0  0  0  0  0
    5.0758   -0.9300   -1.9409 H   0  0  0  0  0  0  0  0  0  0  0  0
    4.7674   -2.3265   -0.8363 H   0  0  0  0  0  0  0  0  0  0  0  0
    6.2338   -1.3524   -0.6737 H   0  0  0  0  0  0  0  0  0  0  0  0
    3.2513    1.0343    1.5995 H   0  0  0  0  0  0  0  0  0  0  0  0
    0.8611    1.5149    1.5992 H   0  0  0  0  0  0  0  0  0  0  0  0
    0.3900   -1.0281   -1.8709 H   0  0  0  0  0  0  0  0  0  0  0  0
    2.7742   -1.4946   -1.8509 H   0  0  0  0  0  0  0  0  0  0  0  0
   -1.4760    1.1686    1.8408 H   0  0  0  0  0  0  0  0  0  0  0  0
   -3.3150    2.3494   -0.3755 H   0  0  0  0  0  0  0  0  0  0  0  0
   -3.4871    2.5694    1.4192 H   0  0  0  0  0  0  0  0  0  0  0  0
   -1.0475    3.4260   -0.2935 H   0  0  0  0  0  0  0  0  0  0  0  0
   -1.2102    3.6431    1.5017 H   0  0  0  0  0  0  0  0  0  0  0  0
   -3.3690   -0.3591   -1.5879 H   0  0  0  0  0  0  0  0  0  0  0  0
   -4.0245   -3.8561    0.4824 H   0  0  0  0  0  0  0  0  0  0  0  0
   -0.8149   -1.5574    1.6345 H   0  0  0  0  0  0  0  0  0  0  0  0
   -0.6073    1.6313   -1.7359 H   0  0  0  0  0  0  0  0  0  0  0  0
  1  2  1  0
  2  3  1  0
  3  4  2  0
  4  5  1  0
  5  6  2  0
  6  7  1  0
  7  8  2  0
  6  9  1  0
  9 10  1  0
 10 11  1  0
 11 12  1  0
  9 13  1  0
 13 14  2  0
 14 15  1  0
 15 16  2  0
 16 17  1  0
 17 18  2  0
  9 19  1  0
  8  3  1  0
 12 10  1  0
 18 13  1  0
  1 20  1  0
  1 21  1  0
  1 22  1  0
  4 23  1  0
  5 24  1  0
  7 25  1  0
  8 26  1  0
 10 27  1  0
 11 28  1  0
 11 29  1  0
 12 30  1  0
 12 31  1  0
 14 32  1  0
 16 33  1  0
 18 34  1  0
 19 35  1  0
M  END
>  <SMILES>  (60) 
COC1=CC=C(C=C1)C(C2CC2)(C3=CN=CN=C3)O

$$$$
anycymidol
     RDKit          3D

 35 37  0  0  0  0  0  0  0  0999 V2000
    5.3785    0.2609   -0.4458 C   0  0  0  0  0  0  0  0  0  0  0  0
    4.4446   -0.7870   -0.6748 O   0  0  0  0  0  0  0  0  0  0  0  0
    3.1400   -0.5319   -0.3569 C   0  0  0  0  0  0  0  0  0  0  0  0
    2.2570   -1.5774   -0.6276 C   0  0  0  0  0  0  0  0  0  0  0  0
    0.8897   -1.4561   -0.3541 C   0  0  0  0  0  0  0  0  0  0  0  0
    0.3693   -0.2775    0.2009 C   0  0  0  0  0  0  0  0  0  0  0  0
    1.2768    0.7678    0.4730 C   0  0  0  0  0  0  0  0  0  0  0  0
    2.6439    0.6443    0.1969 C   0  0  0  0  0  0  0  0  0  0  0  0
   -1.1199   -0.0728    0.5268 C   0  0  0  0  0  0  0  0  0  0  0  0
   -1.9583   -1.3230    0.2770 C   0  0  0  0  0  0  0  0  0  0  0  0
   -3.2267   -1.5985    1.0593 C   0  0  0  0  0  0  0  0  0  0  0  0
   -2.0241   -2.4774    1.2574 C   0  0  0  0  0  0  0  0  0  0  0  0
   -1.7468    1.0639   -0.2552 C   0  0  0  0  0  0  0  0  0  0  0  0
   -2.6175    1.9772    0.3115 C   0  0  0  0  0  0  0  0  0  0  0  0
   -3.2132    2.9830   -0.3652 N   0  0  0  0  0  0  0  0  0  0  0  0
   -2.9195    3.0584   -1.6701 C   0  0  0  0  0  0  0  0  0  0  0  0
   -2.1043    2.2336   -2.3421 N   0  0  0  0  0  0  0  0  0  0  0  0
   -1.5380    1.2504   -1.6116 C   0  0  0  0  0  0  0  0  0  0  0  0
   -1.1827    0.2388    1.9268 O   0  0  0  0  0  0  0  0  0  0  0  0
    5.1353    1.1449   -1.0445 H   0  0  0  0  0  0  0  0  0  0  0  0
    5.4400    0.5083    0.6191 H   0  0  0  0  0  0  0  0  0  0  0  0
    6.3639   -0.0946   -0.7623 H   0  0  0  0  0  0  0  0  0  0  0  0
    2.6380   -2.5007   -1.0589 H   0  0  0  0  0  0  0  0  0  0  0  0
    0.2539   -2.3064   -0.5871 H   0  0  0  0  0  0  0  0  0  0  0  0
    0.9161    1.7011    0.9069 H   0  0  0  0  0  0  0  0  0  0  0  0
    3.2881    1.4864    0.4271 H   0  0  0  0  0  0  0  0  0  0  0  0
   -1.9981   -1.5771   -0.7798 H   0  0  0  0  0  0  0  0  0  0  0  0
   -4.0745   -2.0059    0.5197 H   0  0  0  0  0  0  0  0  0  0  0  0
   -3.5036   -0.9288    1.8662 H   0  0  0  0  0  0  0  0  0  0  0  0
   -1.5009   -2.4062    2.2035 H   0  0  0  0  0  0  0  0  0  0  0  0
   -2.0624   -3.4835    0.8542 H   0  0  0  0  0  0  0  0  0  0  0  0
   -2.8781    1.9289    1.3663 H   0  0  0  0  0  0  0  0  0  0  0  0
   -3.3852    3.8587   -2.2343 H   0  0  0  0  0  0  0  0  0  0  0  0
   -0.8863    0.5929   -2.1821 H   0  0  0  0  0  0  0  0  0  0  0  0
   -0.4949   -0.2947    2.3599 H   0  0  0  0  0  0  0  0  0  0  0  0
  1  2  1  0
  2  3  1  0
  3  4  2  0
  4  5  1  0
  5  6  2  0
  6  7  1  0
  7  8  2  0
  6  9  1  0
  9 10  1  0
 10 11  1  0
 11 12  1  0
  9 13  1  0
 13 14  2  0
 14 15  1  0
 15 16  2  0
 16 17  1  0
 17 18  2  0
  9 19  1  0
  8  3  1  0
 12 10  1  0
 18 13  1  0
  1 20  1  0
  1 21  1  0
  1 22  1  0
  4 23  1  0
  5 24  1  0
  7 25  1  0
  8 26  1  0
 10 27  1  0
 11 28  1  0
 11 29  1  0
 12 30  1  0
 12 31  1  0
 14 32  1  0
 16 33  1  0
 18 34  1  0
 19 35  1  0
M  END
>  <SMILES>  (61) 
COC1=CC=C(C=C1)C(C2CC2)(C3=CN=CN=C3)O

$$$$
anycymidol
     RDKit          3D

 35 37  0  0  0  0  0  0  0  0999 V2000
    5.2241   -0.2156   -0.8351 C   0  0  0  0  0  0  0  0  0  0  0  0
    4.1230    0.5098   -1.3673 O   0  0  0  0  0  0  0  0  0  0  0  0
    2.8943    0.2551   -0.8261 C   0  0  0  0  0  0  0  0  0  0  0  0
    2.6157   -0.6529    0.1903 C   0  0  0  0  0  0  0  0  0  0  0  0
    1.3019   -0.8135    0.6511 C   0  0  0  0  0  0  0  0  0  0  0  0
    0.2297   -0.0697    0.1156 C   0  0  0  0  0  0  0  0  0  0  0  0
    0.5345    0.8311   -0.9201 C   0  0  0  0  0  0  0  0  0  0  0  0
    1.8476    0.9916   -1.3776 C   0  0  0  0  0  0  0  0  0  0  0  0
   -1.2100   -0.2676    0.6336 C   0  0  0  0  0  0  0  0  0  0  0  0
   -1.9076   -1.4896    0.0382 C   0  0  0  0  0  0  0  0  0  0  0  0
   -1.7049   -1.9799   -1.3821 C   0  0  0  0  0  0  0  0  0  0  0  0
   -1.2382   -2.8235   -0.2288 C   0  0  0  0  0  0  0  0  0  0  0  0
   -2.0877    0.9664    0.4672 C   0  0  0  0  0  0  0  0  0  0  0  0
   -2.9562    1.1665   -0.5933 C   0  0  0  0  0  0  0  0  0  0  0  0
   -3.7019    2.2778   -0.7745 N   0  0  0  0  0  0  0  0  0  0  0  0
   -3.5625    3.2299    0.1573 C   0  0  0  0  0  0  0  0  0  0  0  0
   -2.7530    3.1714    1.2219 N   0  0  0  0  0  0  0  0  0  0  0  0
   -2.0338    2.0353    1.3476 C   0  0  0  0  0  0  0  0  0  0  0  0
   -1.1839   -0.5186    2.0494 O   0  0  0  0  0  0  0  0  0  0  0  0
    5.1051   -1.2914   -1.0014 H   0  0  0  0  0  0  0  0  0  0  0  0
    5.3674    0.0072    0.2274 H   0  0  0  0  0  0  0  0  0  0  0  0
    6.1248    0.1057   -1.3671 H   0  0  0  0  0  0  0  0  0  0  0  0
    3.3928   -1.2592    0.6439 H   0  0  0  0  0  0  0  0  0  0  0  0
    1.1228   -1.5536    1.4306 H   0  0  0  0  0  0  0  0  0  0  0  0
   -0.2374    1.4298   -1.3984 H   0  0  0  0  0  0  0  0  0  0  0  0
    2.0533    1.7004   -2.1771 H   0  0  0  0  0  0  0  0  0  0  0  0
   -2.9129   -1.5764    0.4510 H   0  0  0  0  0  0  0  0  0  0  0  0
   -2.5781   -2.3158   -1.9314 H   0  0  0  0  0  0  0  0  0  0  0  0
   -0.9457   -1.5268   -2.0087 H   0  0  0  0  0  0  0  0  0  0  0  0
   -1.8023   -3.7210    0.0044 H   0  0  0  0  0  0  0  0  0  0  0  0
   -0.1718   -2.9475   -0.1012 H   0  0  0  0  0  0  0  0  0  0  0  0
   -3.0867    0.4249   -1.3762 H   0  0  0  0  0  0  0  0  0  0  0  0
   -4.1555    4.1295    0.0368 H   0  0  0  0  0  0  0  0  0  0  0  0
   -1.3824    2.0187    2.2175 H   0  0  0  0  0  0  0  0  0  0  0  0
   -0.3242   -0.2286    2.3919 H   0  0  0  0  0  0  0  0  0  0  0  0
  1  2  1  0
  2  3  1  0
  3  4  2  0
  4  5  1  0
  5  6  2  0
  6  7  1  0
  7  8  2  0
  6  9  1  0
  9 10  1  0
 10 11  1  0
 11 12  1  0
  9 13  1  0
 13 14  2  0
 14 15  1  0
 15 16  2  0
 16 17  1  0
 17 18  2  0
  9 19  1  0
  8  3  1  0
 12 10  1  0
 18 13  1  0
  1 20  1  0
  1 21  1  0
  1 22  1  0
  4 23  1  0
  5 24  1  0
  7 25  1  0
  8 26  1  0
 10 27  1  0
 11 28  1  0
 11 29  1  0
 12 30  1  0
 12 31  1  0
 14 32  1  0
 16 33  1  0
 18 34  1  0
 19 35  1  0
M  END
>  <SMILES>  (62) 
COC1=CC=C(C=C1)C(C2CC2)(C3=CN=CN=C3)O

$$$$
anycymidol
     RDKit          3D

 35 37  0  0  0  0  0  0  0  0999 V2000
    5.3135   -0.0402   -0.4782 C   0  0  0  0  0  0  0  0  0  0  0  0
    4.3752   -1.0330   -0.8725 O   0  0  0  0  0  0  0  0  0  0  0  0
    3.0566   -0.7707   -0.6237 C   0  0  0  0  0  0  0  0  0  0  0  0
    2.5491    0.3627    0.0071 C   0  0  0  0  0  0  0  0  0  0  0  0
    1.1685    0.5050    0.1999 C   0  0  0  0  0  0  0  0  0  0  0  0
    0.2621   -0.4782   -0.2421 C   0  0  0  0  0  0  0  0  0  0  0  0
    0.7941   -1.6193   -0.8643 C   0  0  0  0  0  0  0  0  0  0  0  0
    2.1723   -1.7594   -1.0541 C   0  0  0  0  0  0  0  0  0  0  0  0
   -1.2504   -0.3275   -0.0117 C   0  0  0  0  0  0  0  0  0  0  0  0
   -1.5297   -0.7071    1.4402 C   0  0  0  0  0  0  0  0  0  0  0  0
   -2.8795   -1.2037    1.9203 C   0  0  0  0  0  0  0  0  0  0  0  0
   -1.7143   -2.1508    1.8607 C   0  0  0  0  0  0  0  0  0  0  0  0
   -1.7661    1.0534   -0.3690 C   0  0  0  0  0  0  0  0  0  0  0  0
   -1.6550    1.5391   -1.6637 C   0  0  0  0  0  0  0  0  0  0  0  0
   -2.0902    2.7516   -2.0645 N   0  0  0  0  0  0  0  0  0  0  0  0
   -2.6566    3.5074   -1.1157 C   0  0  0  0  0  0  0  0  0  0  0  0
   -2.8228    3.1591    0.1677 N   0  0  0  0  0  0  0  0  0  0  0  0
   -2.3708    1.9336    0.5091 C   0  0  0  0  0  0  0  0  0  0  0  0
   -1.9475   -1.2476   -0.8648 O   0  0  0  0  0  0  0  0  0  0  0  0
    5.3040    0.1023    0.6075 H   0  0  0  0  0  0  0  0  0  0  0  0
    6.3108   -0.3926   -0.7586 H   0  0  0  0  0  0  0  0  0  0  0  0
    5.1344    0.9040   -1.0031 H   0  0  0  0  0  0  0  0  0  0  0  0
    3.1970    1.1563    0.3642 H   0  0  0  0  0  0  0  0  0  0  0  0
    0.8107    1.4021    0.7022 H   0  0  0  0  0  0  0  0  0  0  0  0
    0.1374   -2.4161   -1.2086 H   0  0  0  0  0  0  0  0  0  0  0  0
    2.5578   -2.6511   -1.5426 H   0  0  0  0  0  0  0  0  0  0  0  0
   -0.9616   -0.0905    2.1332 H   0  0  0  0  0  0  0  0  0  0  0  0
   -3.6837   -1.3559    1.2107 H   0  0  0  0  0  0  0  0  0  0  0  0
   -3.2186   -0.8853    2.9005 H   0  0  0  0  0  0  0  0  0  0  0  0
   -1.2609   -2.4659    2.7940 H   0  0  0  0  0  0  0  0  0  0  0  0
   -1.7204   -2.9214    1.0974 H   0  0  0  0  0  0  0  0  0  0  0  0
   -1.1951    0.9414   -2.4491 H   0  0  0  0  0  0  0  0  0  0  0  0
   -3.0126    4.4877   -1.4121 H   0  0  0  0  0  0  0  0  0  0  0  0
   -2.5262    1.6927    1.5568 H   0  0  0  0  0  0  0  0  0  0  0  0
   -2.8814   -0.9821   -0.8731 H   0  0  0  0  0  0  0  0  0  0  0  0
  1  2  1  0
  2  3  1  0
  3  4  2  0
  4  5  1  0
  5  6  2  0
  6  7  1  0
  7  8  2  0
  6  9  1  0
  9 10  1  0
 10 11  1  0
 11 12  1  0
  9 13  1  0
 13 14  2  0
 14 15  1  0
 15 16  2  0
 16 17  1  0
 17 18  2  0
  9 19  1  0
  8  3  1  0
 12 10  1  0
 18 13  1  0
  1 20  1  0
  1 21  1  0
  1 22  1  0
  4 23  1  0
  5 24  1  0
  7 25  1  0
  8 26  1  0
 10 27  1  0
 11 28  1  0
 11 29  1  0
 12 30  1  0
 12 31  1  0
 14 32  1  0
 16 33  1  0
 18 34  1  0
 19 35  1  0
M  END
>  <SMILES>  (63) 
COC1=CC=C(C=C1)C(C2CC2)(C3=CN=CN=C3)O

$$$$
anycymidol
     RDKit          3D

 35 37  0  0  0  0  0  0  0  0999 V2000
    5.2613    0.1138   -1.1930 C   0  0  0  0  0  0  0  0  0  0  0  0
    4.1239    0.6598   -1.8487 O   0  0  0  0  0  0  0  0  0  0  0  0
    2.8999    0.3552   -1.3225 C   0  0  0  0  0  0  0  0  0  0  0  0
    2.6587   -0.4596   -0.2189 C   0  0  0  0  0  0  0  0  0  0  0  0
    1.3470   -0.6927    0.2200 C   0  0  0  0  0  0  0  0  0  0  0  0
    0.2459   -0.1161   -0.4342 C   0  0  0  0  0  0  0  0  0  0  0  0
    0.5109    0.7032   -1.5496 C   0  0  0  0  0  0  0  0  0  0  0  0
    1.8186    0.9337   -1.9845 C   0  0  0  0  0  0  0  0  0  0  0  0
   -1.2145   -0.3329   -0.0018 C   0  0  0  0  0  0  0  0  0  0  0  0
   -1.3494   -1.3370    1.1398 C   0  0  0  0  0  0  0  0  0  0  0  0
   -1.3056   -2.8365    0.9220 C   0  0  0  0  0  0  0  0  0  0  0  0
   -2.5977   -2.1781    1.3156 C   0  0  0  0  0  0  0  0  0  0  0  0
   -1.9024    0.9466    0.4297 C   0  0  0  0  0  0  0  0  0  0  0  0
   -1.3021    1.8852    1.2525 C   0  0  0  0  0  0  0  0  0  0  0  0
   -1.8997    3.0165    1.6818 N   0  0  0  0  0  0  0  0  0  0  0  0
   -3.1586    3.2020    1.2612 C   0  0  0  0  0  0  0  0  0  0  0  0
   -3.8556    2.3711    0.4747 N   0  0  0  0  0  0  0  0  0  0  0  0
   -3.2047    1.2553    0.0801 C   0  0  0  0  0  0  0  0  0  0  0  0
   -1.8994   -0.8622   -1.1471 O   0  0  0  0  0  0  0  0  0  0  0  0
    5.3315    0.4710   -0.1603 H   0  0  0  0  0  0  0  0  0  0  0  0
    6.1524    0.4593   -1.7260 H   0  0  0  0  0  0  0  0  0  0  0  0
    5.2523   -0.9804   -1.2337 H   0  0  0  0  0  0  0  0  0  0  0  0
    3.4685   -0.9331    0.3269 H   0  0  0  0  0  0  0  0  0  0  0  0
    1.2163   -1.3381    1.0853 H   0  0  0  0  0  0  0  0  0  0  0  0
   -0.3095    1.1741   -2.0913 H   0  0  0  0  0  0  0  0  0  0  0  0
    1.9938    1.5729   -2.8469 H   0  0  0  0  0  0  0  0  0  0  0  0
   -0.9070   -0.9629    2.0603 H   0  0  0  0  0  0  0  0  0  0  0  0
   -0.8015   -3.4431    1.6664 H   0  0  0  0  0  0  0  0  0  0  0  0
   -1.2287   -3.2276   -0.0855 H   0  0  0  0  0  0  0  0  0  0  0  0
   -3.3832   -2.1170    0.5702 H   0  0  0  0  0  0  0  0  0  0  0  0
   -2.9645   -2.3333    2.3243 H   0  0  0  0  0  0  0  0  0  0  0  0
   -0.2838    1.7580    1.6117 H   0  0  0  0  0  0  0  0  0  0  0  0
   -3.6596    4.1059    1.5890 H   0  0  0  0  0  0  0  0  0  0  0  0
   -3.7924    0.5911   -0.5495 H   0  0  0  0  0  0  0  0  0  0  0  0
   -1.2612   -1.4241   -1.6183 H   0  0  0  0  0  0  0  0  0  0  0  0
  1  2  1  0
  2  3  1  0
  3  4  2  0
  4  5  1  0
  5  6  2  0
  6  7  1  0
  7  8  2  0
  6  9  1  0
  9 10  1  0
 10 11  1  0
 11 12  1  0
  9 13  1  0
 13 14  2  0
 14 15  1  0
 15 16  2  0
 16 17  1  0
 17 18  2  0
  9 19  1  0
  8  3  1  0
 12 10  1  0
 18 13  1  0
  1 20  1  0
  1 21  1  0
  1 22  1  0
  4 23  1  0
  5 24  1  0
  7 25  1  0
  8 26  1  0
 10 27  1  0
 11 28  1  0
 11 29  1  0
 12 30  1  0
 12 31  1  0
 14 32  1  0
 16 33  1  0
 18 34  1  0
 19 35  1  0
M  END
>  <SMILES>  (64) 
COC1=CC=C(C=C1)C(C2CC2)(C3=CN=CN=C3)O

$$$$
anycymidol
     RDKit          3D

 35 37  0  0  0  0  0  0  0  0999 V2000
    5.3854   -0.0610   -0.1561 C   0  0  0  0  0  0  0  0  0  0  0  0
    4.3699   -0.4737   -1.0618 O   0  0  0  0  0  0  0  0  0  0  0  0
    3.0765   -0.2222   -0.6990 C   0  0  0  0  0  0  0  0  0  0  0  0
    2.6587    0.4222    0.4631 C   0  0  0  0  0  0  0  0  0  0  0  0
    1.2930    0.6184    0.7158 C   0  0  0  0  0  0  0  0  0  0  0  0
    0.3132    0.1743   -0.1874 C   0  0  0  0  0  0  0  0  0  0  0  0
    0.7564   -0.4733   -1.3577 C   0  0  0  0  0  0  0  0  0  0  0  0
    2.1175   -0.6674   -1.6068 C   0  0  0  0  0  0  0  0  0  0  0  0
   -1.1982    0.3590    0.0327 C   0  0  0  0  0  0  0  0  0  0  0  0
   -1.5174    1.1820    1.2778 C   0  0  0  0  0  0  0  0  0  0  0  0
   -2.7780    2.0172    1.3773 C   0  0  0  0  0  0  0  0  0  0  0  0
   -1.4394    2.6957    1.3020 C   0  0  0  0  0  0  0  0  0  0  0  0
   -1.9466   -0.9538    0.1469 C   0  0  0  0  0  0  0  0  0  0  0  0
   -3.1745   -1.1741   -0.4507 C   0  0  0  0  0  0  0  0  0  0  0  0
   -3.8805   -2.3204   -0.3414 N   0  0  0  0  0  0  0  0  0  0  0  0
   -3.3204   -3.2775    0.4104 C   0  0  0  0  0  0  0  0  0  0  0  0
   -2.1467   -3.1885    1.0514 N   0  0  0  0  0  0  0  0  0  0  0  0
   -1.4878   -2.0203    0.9020 C   0  0  0  0  0  0  0  0  0  0  0  0
   -1.6879    1.0719   -1.1132 O   0  0  0  0  0  0  0  0  0  0  0  0
    5.2868   -0.5717    0.8075 H   0  0  0  0  0  0  0  0  0  0  0  0
    6.3514   -0.3437   -0.5853 H   0  0  0  0  0  0  0  0  0  0  0  0
    5.3826    1.0267   -0.0297 H   0  0  0  0  0  0  0  0  0  0  0  0
    3.3688    0.7878    1.1979 H   0  0  0  0  0  0  0  0  0  0  0  0
    1.0231    1.1286    1.6373 H   0  0  0  0  0  0  0  0  0  0  0  0
    0.0352   -0.8367   -2.0899 H   0  0  0  0  0  0  0  0  0  0  0  0
    2.4310   -1.1731   -2.5173 H   0  0  0  0  0  0  0  0  0  0  0  0
   -1.2304    0.6625    2.1891 H   0  0  0  0  0  0  0  0  0  0  0  0
   -3.3040    2.0271    2.3255 H   0  0  0  0  0  0  0  0  0  0  0  0
   -3.4318    2.0887    0.5148 H   0  0  0  0  0  0  0  0  0  0  0  0
   -1.1998    3.2326    0.3919 H   0  0  0  0  0  0  0  0  0  0  0  0
   -1.0633    3.1703    2.2017 H   0  0  0  0  0  0  0  0  0  0  0  0
   -3.6522   -0.4082   -1.0573 H   0  0  0  0  0  0  0  0  0  0  0  0
   -3.8677   -4.2080    0.5111 H   0  0  0  0  0  0  0  0  0  0  0  0
   -0.5415   -1.9739    1.4355 H   0  0  0  0  0  0  0  0  0  0  0  0
   -0.9818    1.6827   -1.3840 H   0  0  0  0  0  0  0  0  0  0  0  0
  1  2  1  0
  2  3  1  0
  3  4  2  0
  4  5  1  0
  5  6  2  0
  6  7  1  0
  7  8  2  0
  6  9  1  0
  9 10  1  0
 10 11  1  0
 11 12  1  0
  9 13  1  0
 13 14  2  0
 14 15  1  0
 15 16  2  0
 16 17  1  0
 17 18  2  0
  9 19  1  0
  8  3  1  0
 12 10  1  0
 18 13  1  0
  1 20  1  0
  1 21  1  0
  1 22  1  0
  4 23  1  0
  5 24  1  0
  7 25  1  0
  8 26  1  0
 10 27  1  0
 11 28  1  0
 11 29  1  0
 12 30  1  0
 12 31  1  0
 14 32  1  0
 16 33  1  0
 18 34  1  0
 19 35  1  0
M  END
>  <SMILES>  (65) 
COC1=CC=C(C=C1)C(C2CC2)(C3=CN=CN=C3)O

$$$$
anycymidol
     RDKit          3D

 35 37  0  0  0  0  0  0  0  0999 V2000
    4.8958    1.6830    1.5470 C   0  0  0  0  0  0  0  0  0  0  0  0
    4.2563    0.4136    1.5942 O   0  0  0  0  0  0  0  0  0  0  0  0
    2.9476    0.3665    1.2029 C   0  0  0  0  0  0  0  0  0  0  0  0
    2.1735    1.4471    0.7910 C   0  0  0  0  0  0  0  0  0  0  0  0
    0.8386    1.2518    0.4166 C   0  0  0  0  0  0  0  0  0  0  0  0
    0.2426   -0.0267    0.4403 C   0  0  0  0  0  0  0  0  0  0  0  0
    1.0386   -1.1023    0.8616 C   0  0  0  0  0  0  0  0  0  0  0  0
    2.3724   -0.9038    1.2369 C   0  0  0  0  0  0  0  0  0  0  0  0
   -1.2281   -0.1694    0.0132 C   0  0  0  0  0  0  0  0  0  0  0  0
   -1.7619   -1.5876    0.1920 C   0  0  0  0  0  0  0  0  0  0  0  0
   -2.2209   -2.1298    1.5312 C   0  0  0  0  0  0  0  0  0  0  0  0
   -3.2303   -1.8571    0.4521 C   0  0  0  0  0  0  0  0  0  0  0  0
   -1.4682    0.2330   -1.4280 C   0  0  0  0  0  0  0  0  0  0  0  0
   -2.5591    0.9834   -1.8283 C   0  0  0  0  0  0  0  0  0  0  0  0
   -2.8148    1.3335   -3.1075 N   0  0  0  0  0  0  0  0  0  0  0  0
   -1.9325    0.8969   -4.0163 C   0  0  0  0  0  0  0  0  0  0  0  0
   -0.8447    0.1556   -3.7640 N   0  0  0  0  0  0  0  0  0  0  0  0
   -0.6421   -0.1603   -2.4677 C   0  0  0  0  0  0  0  0  0  0  0  0
   -1.9788    0.7052    0.8691 O   0  0  0  0  0  0  0  0  0  0  0  0
    4.4194    2.3903    2.2340 H   0  0  0  0  0  0  0  0  0  0  0  0
    5.9314    1.5480    1.8739 H   0  0  0  0  0  0  0  0  0  0  0  0
    4.9177    2.0769    0.5255 H   0  0  0  0  0  0  0  0  0  0  0  0
    2.5725    2.4552    0.7474 H   0  0  0  0  0  0  0  0  0  0  0  0
    0.2559    2.1169    0.0982 H   0  0  0  0  0  0  0  0  0  0  0  0
    0.6491   -2.1158    0.9105 H   0  0  0  0  0  0  0  0  0  0  0  0
    2.9710   -1.7531    1.5594 H   0  0  0  0  0  0  0  0  0  0  0  0
   -1.2703   -2.2906   -0.4767 H   0  0  0  0  0  0  0  0  0  0  0  0
   -1.9968   -3.1655    1.7626 H   0  0  0  0  0  0  0  0  0  0  0  0
   -2.2251   -1.4802    2.3982 H   0  0  0  0  0  0  0  0  0  0  0  0
   -3.9037   -1.0178    0.5884 H   0  0  0  0  0  0  0  0  0  0  0  0
   -3.6849   -2.7046   -0.0491 H   0  0  0  0  0  0  0  0  0  0  0  0
   -3.2933    1.3398   -1.1095 H   0  0  0  0  0  0  0  0  0  0  0  0
   -2.1163    1.1663   -5.0502 H   0  0  0  0  0  0  0  0  0  0  0  0
    0.2435   -0.7664   -2.2920 H   0  0  0  0  0  0  0  0  0  0  0  0
   -1.5545    0.6680    1.7430 H   0  0  0  0  0  0  0  0  0  0  0  0
  1  2  1  0
  2  3  1  0
  3  4  2  0
  4  5  1  0
  5  6  2  0
  6  7  1  0
  7  8  2  0
  6  9  1  0
  9 10  1  0
 10 11  1  0
 11 12  1  0
  9 13  1  0
 13 14  2  0
 14 15  1  0
 15 16  2  0
 16 17  1  0
 17 18  2  0
  9 19  1  0
  8  3  1  0
 12 10  1  0
 18 13  1  0
  1 20  1  0
  1 21  1  0
  1 22  1  0
  4 23  1  0
  5 24  1  0
  7 25  1  0
  8 26  1  0
 10 27  1  0
 11 28  1  0
 11 29  1  0
 12 30  1  0
 12 31  1  0
 14 32  1  0
 16 33  1  0
 18 34  1  0
 19 35  1  0
M  END
>  <SMILES>  (66) 
COC1=CC=C(C=C1)C(C2CC2)(C3=CN=CN=C3)O

$$$$
anycymidol
     RDKit          3D

 35 37  0  0  0  0  0  0  0  0999 V2000
    5.1897   -1.1169   -0.3758 C   0  0  0  0  0  0  0  0  0  0  0  0
    4.4294   -0.0830    0.2370 O   0  0  0  0  0  0  0  0  0  0  0  0
    3.0813   -0.0960    0.0167 C   0  0  0  0  0  0  0  0  0  0  0  0
    2.3717    0.9171    0.6561 C   0  0  0  0  0  0  0  0  0  0  0  0
    0.9800    1.0257    0.5199 C   0  0  0  0  0  0  0  0  0  0  0  0
    0.2500    0.1397   -0.2827 C   0  0  0  0  0  0  0  0  0  0  0  0
    0.9917   -0.8994   -0.8941 C   0  0  0  0  0  0  0  0  0  0  0  0
    2.3824   -1.0126   -0.7575 C   0  0  0  0  0  0  0  0  0  0  0  0
   -1.2823    0.1539   -0.4548 C   0  0  0  0  0  0  0  0  0  0  0  0
   -2.0437    1.4742   -0.4544 C   0  0  0  0  0  0  0  0  0  0  0  0
   -1.4390    2.8263   -0.7571 C   0  0  0  0  0  0  0  0  0  0  0  0
   -2.0295    2.5521    0.6050 C   0  0  0  0  0  0  0  0  0  0  0  0
   -1.9652   -0.7888    0.5174 C   0  0  0  0  0  0  0  0  0  0  0  0
   -2.8486   -1.7792    0.1255 C   0  0  0  0  0  0  0  0  0  0  0  0
   -3.4861   -2.6146    0.9747 N   0  0  0  0  0  0  0  0  0  0  0  0
   -3.2181   -2.4357    2.2747 C   0  0  0  0  0  0  0  0  0  0  0  0
   -2.3917   -1.5139    2.7871 N   0  0  0  0  0  0  0  0  0  0  0  0
   -1.7835   -0.7115    1.8877 C   0  0  0  0  0  0  0  0  0  0  0  0
   -1.5125   -0.3355   -1.7931 O   0  0  0  0  0  0  0  0  0  0  0  0
    6.2384   -0.9684   -0.1009 H   0  0  0  0  0  0  0  0  0  0  0  0
    5.1208   -1.0635   -1.4674 H   0  0  0  0  0  0  0  0  0  0  0  0
    4.8852   -2.1022   -0.0076 H   0  0  0  0  0  0  0  0  0  0  0  0
    2.9056    1.6308    1.2804 H   0  0  0  0  0  0  0  0  0  0  0  0
    0.5053    1.8243    1.0740 H   0  0  0  0  0  0  0  0  0  0  0  0
    0.4797   -1.6588   -1.4866 H   0  0  0  0  0  0  0  0  0  0  0  0
    2.8784   -1.8346   -1.2627 H   0  0  0  0  0  0  0  0  0  0  0  0
   -3.0330    1.3013   -0.8856 H   0  0  0  0  0  0  0  0  0  0  0  0
   -1.9904    3.4846   -1.4219 H   0  0  0  0  0  0  0  0  0  0  0  0
   -0.3669    2.9411   -0.8465 H   0  0  0  0  0  0  0  0  0  0  0  0
   -2.9774    3.0269    0.8452 H   0  0  0  0  0  0  0  0  0  0  0  0
   -1.3856    2.4704    1.4672 H   0  0  0  0  0  0  0  0  0  0  0  0
   -3.0878   -1.9424   -0.9227 H   0  0  0  0  0  0  0  0  0  0  0  0
   -3.7162   -3.0956    2.9759 H   0  0  0  0  0  0  0  0  0  0  0  0
   -1.1207    0.0248    2.3331 H   0  0  0  0  0  0  0  0  0  0  0  0
   -1.0112    0.2595   -2.3785 H   0  0  0  0  0  0  0  0  0  0  0  0
  1  2  1  0
  2  3  1  0
  3  4  2  0
  4  5  1  0
  5  6  2  0
  6  7  1  0
  7  8  2  0
  6  9  1  0
  9 10  1  0
 10 11  1  0
 11 12  1  0
  9 13  1  0
 13 14  2  0
 14 15  1  0
 15 16  2  0
 16 17  1  0
 17 18  2  0
  9 19  1  0
  8  3  1  0
 12 10  1  0
 18 13  1  0
  1 20  1  0
  1 21  1  0
  1 22  1  0
  4 23  1  0
  5 24  1  0
  7 25  1  0
  8 26  1  0
 10 27  1  0
 11 28  1  0
 11 29  1  0
 12 30  1  0
 12 31  1  0
 14 32  1  0
 16 33  1  0
 18 34  1  0
 19 35  1  0
M  END
>  <SMILES>  (67) 
COC1=CC=C(C=C1)C(C2CC2)(C3=CN=CN=C3)O

$$$$
anycymidol
     RDKit          3D

 35 37  0  0  0  0  0  0  0  0999 V2000
    5.0317   -0.6073   -1.8515 C   0  0  0  0  0  0  0  0  0  0  0  0
    3.7628   -0.7624   -2.4745 O   0  0  0  0  0  0  0  0  0  0  0  0
    2.6609   -0.6265   -1.6776 C   0  0  0  0  0  0  0  0  0  0  0  0
    1.4412   -0.7549   -2.3393 C   0  0  0  0  0  0  0  0  0  0  0  0
    0.2362   -0.6388   -1.6413 C   0  0  0  0  0  0  0  0  0  0  0  0
    0.2166   -0.3891   -0.2547 C   0  0  0  0  0  0  0  0  0  0  0  0
    1.4547   -0.2646    0.3969 C   0  0  0  0  0  0  0  0  0  0  0  0
    2.6627   -0.3816   -0.3065 C   0  0  0  0  0  0  0  0  0  0  0  0
   -1.1407   -0.2710    0.4598 C   0  0  0  0  0  0  0  0  0  0  0  0
   -1.0008   -0.1223    1.9724 C   0  0  0  0  0  0  0  0  0  0  0  0
   -0.7423   -1.2998    2.8916 C   0  0  0  0  0  0  0  0  0  0  0  0
   -2.0766   -0.6094    2.9221 C   0  0  0  0  0  0  0  0  0  0  0  0
   -1.9756    0.8911   -0.0393 C   0  0  0  0  0  0  0  0  0  0  0  0
   -3.3384    0.7992   -0.2580 C   0  0  0  0  0  0  0  0  0  0  0  0
   -4.1147    1.8244   -0.6714 N   0  0  0  0  0  0  0  0  0  0  0  0
   -3.4831    2.9902   -0.8626 C   0  0  0  0  0  0  0  0  0  0  0  0
   -2.1753    3.2164   -0.6755 N   0  0  0  0  0  0  0  0  0  0  0  0
   -1.4523    2.1532   -0.2653 C   0  0  0  0  0  0  0  0  0  0  0  0
   -1.8441   -1.4937    0.1931 O   0  0  0  0  0  0  0  0  0  0  0  0
    5.1436    0.3964   -1.4278 H   0  0  0  0  0  0  0  0  0  0  0  0
    5.7996   -0.7314   -2.6212 H   0  0  0  0  0  0  0  0  0  0  0  0
    5.1947   -1.3784   -1.0912 H   0  0  0  0  0  0  0  0  0  0  0  0
    1.4263   -0.9451   -3.4101 H   0  0  0  0  0  0  0  0  0  0  0  0
   -0.6981   -0.7433   -2.1928 H   0  0  0  0  0  0  0  0  0  0  0  0
    1.5147   -0.0753    1.4659 H   0  0  0  0  0  0  0  0  0  0  0  0
    3.5875   -0.2766    0.2517 H   0  0  0  0  0  0  0  0  0  0  0  0
   -0.5335    0.8216    2.2434 H   0  0  0  0  0  0  0  0  0  0  0  0
   -0.7055   -2.3012    2.4793 H   0  0  0  0  0  0  0  0  0  0  0  0
   -0.0772   -1.1492    3.7349 H   0  0  0  0  0  0  0  0  0  0  0  0
   -2.9321   -1.1418    2.5206 H   0  0  0  0  0  0  0  0  0  0  0  0
   -2.3122    0.0111    3.7797 H   0  0  0  0  0  0  0  0  0  0  0  0
   -3.8736   -0.1342   -0.0993 H   0  0  0  0  0  0  0  0  0  0  0  0
   -4.0852    3.8276   -1.1967 H   0  0  0  0  0  0  0  0  0  0  0  0
   -0.3962    2.3655   -0.1178 H   0  0  0  0  0  0  0  0  0  0  0  0
   -1.1756   -2.1988    0.1630 H   0  0  0  0  0  0  0  0  0  0  0  0
  1  2  1  0
  2  3  1  0
  3  4  2  0
  4  5  1  0
  5  6  2  0
  6  7  1  0
  7  8  2  0
  6  9  1  0
  9 10  1  0
 10 11  1  0
 11 12  1  0
  9 13  1  0
 13 14  2  0
 14 15  1  0
 15 16  2  0
 16 17  1  0
 17 18  2  0
  9 19  1  0
  8  3  1  0
 12 10  1  0
 18 13  1  0
  1 20  1  0
  1 21  1  0
  1 22  1  0
  4 23  1  0
  5 24  1  0
  7 25  1  0
  8 26  1  0
 10 27  1  0
 11 28  1  0
 11 29  1  0
 12 30  1  0
 12 31  1  0
 14 32  1  0
 16 33  1  0
 18 34  1  0
 19 35  1  0
M  END
>  <SMILES>  (68) 
COC1=CC=C(C=C1)C(C2CC2)(C3=CN=CN=C3)O

$$$$
anycymidol
     RDKit          3D

 35 37  0  0  0  0  0  0  0  0999 V2000
    5.1444   -1.9178    0.3019 C   0  0  0  0  0  0  0  0  0  0  0  0
    4.4763   -0.9787   -0.5311 O   0  0  0  0  0  0  0  0  0  0  0  0
    3.1989   -0.6414   -0.1811 C   0  0  0  0  0  0  0  0  0  0  0  0
    2.5918    0.2955   -1.0153 C   0  0  0  0  0  0  0  0  0  0  0  0
    1.2840    0.7305   -0.7744 C   0  0  0  0  0  0  0  0  0  0  0  0
    0.5444    0.2444    0.3195 C   0  0  0  0  0  0  0  0  0  0  0  0
    1.1710   -0.7121    1.1430 C   0  0  0  0  0  0  0  0  0  0  0  0
    2.4818   -1.1460    0.8996 C   0  0  0  0  0  0  0  0  0  0  0  0
   -0.9172    0.6749    0.5790 C   0  0  0  0  0  0  0  0  0  0  0  0
   -1.1382    2.1070    0.0969 C   0  0  0  0  0  0  0  0  0  0  0  0
   -1.7298    2.4847   -1.2475 C   0  0  0  0  0  0  0  0  0  0  0  0
   -2.4969    2.7753    0.0122 C   0  0  0  0  0  0  0  0  0  0  0  0
   -1.9288   -0.3147    0.0259 C   0  0  0  0  0  0  0  0  0  0  0  0
   -3.1822   -0.4946    0.5894 C   0  0  0  0  0  0  0  0  0  0  0  0
   -4.1148   -1.3557    0.1323 N   0  0  0  0  0  0  0  0  0  0  0  0
   -3.7728   -2.0555   -0.9566 C   0  0  0  0  0  0  0  0  0  0  0  0
   -2.6059   -1.9681   -1.6073 N   0  0  0  0  0  0  0  0  0  0  0  0
   -1.7108   -1.0939   -1.0981 C   0  0  0  0  0  0  0  0  0  0  0  0
   -1.0573    0.7560    2.0076 O   0  0  0  0  0  0  0  0  0  0  0  0
    5.2523   -1.5346    1.3221 H   0  0  0  0  0  0  0  0  0  0  0  0
    4.6324   -2.8857    0.2945 H   0  0  0  0  0  0  0  0  0  0  0  0
    6.1490   -2.0697   -0.1045 H   0  0  0  0  0  0  0  0  0  0  0  0
    3.1417    0.6922   -1.8658 H   0  0  0  0  0  0  0  0  0  0  0  0
    0.8575    1.4536   -1.4654 H   0  0  0  0  0  0  0  0  0  0  0  0
    0.6469   -1.1377    1.9956 H   0  0  0  0  0  0  0  0  0  0  0  0
    2.9079   -1.8802    1.5753 H   0  0  0  0  0  0  0  0  0  0  0  0
   -0.3536    2.7527    0.4913 H   0  0  0  0  0  0  0  0  0  0  0  0
   -1.2888    3.3247   -1.7743 H   0  0  0  0  0  0  0  0  0  0  0  0
   -2.1223    1.7201   -1.9071 H   0  0  0  0  0  0  0  0  0  0  0  0
   -3.4033    2.2130    0.1908 H   0  0  0  0  0  0  0  0  0  0  0  0
   -2.5661    3.8084    0.3379 H   0  0  0  0  0  0  0  0  0  0  0  0
   -3.4968    0.0767    1.4606 H   0  0  0  0  0  0  0  0  0  0  0  0
   -4.5053   -2.7531   -1.3469 H   0  0  0  0  0  0  0  0  0  0  0  0
   -0.7811   -1.0487   -1.6593 H   0  0  0  0  0  0  0  0  0  0  0  0
   -1.3085   -0.1216    2.3354 H   0  0  0  0  0  0  0  0  0  0  0  0
  1  2  1  0
  2  3  1  0
  3  4  2  0
  4  5  1  0
  5  6  2  0
  6  7  1  0
  7  8  2  0
  6  9  1  0
  9 10  1  0
 10 11  1  0
 11 12  1  0
  9 13  1  0
 13 14  2  0
 14 15  1  0
 15 16  2  0
 16 17  1  0
 17 18  2  0
  9 19  1  0
  8  3  1  0
 12 10  1  0
 18 13  1  0
  1 20  1  0
  1 21  1  0
  1 22  1  0
  4 23  1  0
  5 24  1  0
  7 25  1  0
  8 26  1  0
 10 27  1  0
 11 28  1  0
 11 29  1  0
 12 30  1  0
 12 31  1  0
 14 32  1  0
 16 33  1  0
 18 34  1  0
 19 35  1  0
M  END
>  <SMILES>  (69) 
COC1=CC=C(C=C1)C(C2CC2)(C3=CN=CN=C3)O

$$$$
anycymidol
     RDKit          3D

 35 37  0  0  0  0  0  0  0  0999 V2000
    5.4170   -0.2095    0.6003 C   0  0  0  0  0  0  0  0  0  0  0  0
    4.3903    0.7526    0.8056 O   0  0  0  0  0  0  0  0  0  0  0  0
    3.1135    0.3656    0.5066 C   0  0  0  0  0  0  0  0  0  0  0  0
    2.7277   -0.8721   -0.0021 C   0  0  0  0  0  0  0  0  0  0  0  0
    1.3774   -1.1372   -0.2652 C   0  0  0  0  0  0  0  0  0  0  0  0
    0.3807   -0.1766   -0.0197 C   0  0  0  0  0  0  0  0  0  0  0  0
    0.7899    1.0722    0.4823 C   0  0  0  0  0  0  0  0  0  0  0  0
    2.1383    1.3341    0.7444 C   0  0  0  0  0  0  0  0  0  0  0  0
   -1.0975   -0.4626   -0.3297 C   0  0  0  0  0  0  0  0  0  0  0  0
   -1.4198    0.2025   -1.6654 C   0  0  0  0  0  0  0  0  0  0  0  0
   -1.1176   -0.4791   -2.9842 C   0  0  0  0  0  0  0  0  0  0  0  0
   -2.5453   -0.2605   -2.5697 C   0  0  0  0  0  0  0  0  0  0  0  0
   -2.0292   -0.0275    0.7852 C   0  0  0  0  0  0  0  0  0  0  0  0
   -1.9232   -0.5782    2.0540 C   0  0  0  0  0  0  0  0  0  0  0  0
   -2.7152   -0.2528    3.0966 N   0  0  0  0  0  0  0  0  0  0  0  0
   -3.6488    0.6740    2.8485 C   0  0  0  0  0  0  0  0  0  0  0  0
   -3.8548    1.2832    1.6727 N   0  0  0  0  0  0  0  0  0  0  0  0
   -3.0342    0.9144    0.6661 C   0  0  0  0  0  0  0  0  0  0  0  0
   -1.2790   -1.8798   -0.4723 O   0  0  0  0  0  0  0  0  0  0  0  0
    5.2629   -1.0925    1.2293 H   0  0  0  0  0  0  0  0  0  0  0  0
    5.4941   -0.4846   -0.4568 H   0  0  0  0  0  0  0  0  0  0  0  0
    6.3667    0.2472    0.8952 H   0  0  0  0  0  0  0  0  0  0  0  0
    3.4480   -1.6561   -0.2101 H   0  0  0  0  0  0  0  0  0  0  0  0
    1.1091   -2.1119   -0.6700 H   0  0  0  0  0  0  0  0  0  0  0  0
    0.0655    1.8601    0.6784 H   0  0  0  0  0  0  0  0  0  0  0  0
    2.4308    2.3048    1.1381 H   0  0  0  0  0  0  0  0  0  0  0  0
   -1.2232    1.2721   -1.6393 H   0  0  0  0  0  0  0  0  0  0  0  0
   -0.7318   -1.4927   -2.9731 H   0  0  0  0  0  0  0  0  0  0  0  0
   -0.7173    0.1309   -3.7864 H   0  0  0  0  0  0  0  0  0  0  0  0
   -3.1130    0.4958   -3.1015 H   0  0  0  0  0  0  0  0  0  0  0  0
   -3.1280   -1.1341   -2.3040 H   0  0  0  0  0  0  0  0  0  0  0  0
   -1.1681   -1.3300    2.2775 H   0  0  0  0  0  0  0  0  0  0  0  0
   -4.2959    0.9560    3.6715 H   0  0  0  0  0  0  0  0  0  0  0  0
   -3.2359    1.4328   -0.2669 H   0  0  0  0  0  0  0  0  0  0  0  0
   -2.2341   -2.0520   -0.4360 H   0  0  0  0  0  0  0  0  0  0  0  0
  1  2  1  0
  2  3  1  0
  3  4  2  0
  4  5  1  0
  5  6  2  0
  6  7  1  0
  7  8  2  0
  6  9  1  0
  9 10  1  0
 10 11  1  0
 11 12  1  0
  9 13  1  0
 13 14  2  0
 14 15  1  0
 15 16  2  0
 16 17  1  0
 17 18  2  0
  9 19  1  0
  8  3  1  0
 12 10  1  0
 18 13  1  0
  1 20  1  0
  1 21  1  0
  1 22  1  0
  4 23  1  0
  5 24  1  0
  7 25  1  0
  8 26  1  0
 10 27  1  0
 11 28  1  0
 11 29  1  0
 12 30  1  0
 12 31  1  0
 14 32  1  0
 16 33  1  0
 18 34  1  0
 19 35  1  0
M  END
>  <SMILES>  (70) 
COC1=CC=C(C=C1)C(C2CC2)(C3=CN=CN=C3)O

$$$$
anycymidol
     RDKit          3D

 35 37  0  0  0  0  0  0  0  0999 V2000
    5.2766   -0.1486    1.6357 C   0  0  0  0  0  0  0  0  0  0  0  0
    4.0833   -0.7492    2.1113 O   0  0  0  0  0  0  0  0  0  0  0  0
    2.9611   -0.5848    1.3479 C   0  0  0  0  0  0  0  0  0  0  0  0
    2.8957    0.0384    0.1044 C   0  0  0  0  0  0  0  0  0  0  0  0
    1.6766    0.1199   -0.5780 C   0  0  0  0  0  0  0  0  0  0  0  0
    0.4938   -0.4269   -0.0373 C   0  0  0  0  0  0  0  0  0  0  0  0
    0.5756   -1.0293    1.2293 C   0  0  0  0  0  0  0  0  0  0  0  0
    1.7951   -1.1122    1.9061 C   0  0  0  0  0  0  0  0  0  0  0  0
   -0.8355   -0.3030   -0.8057 C   0  0  0  0  0  0  0  0  0  0  0  0
   -1.7700   -1.4690   -0.4658 C   0  0  0  0  0  0  0  0  0  0  0  0
   -3.1539   -1.6126   -1.0673 C   0  0  0  0  0  0  0  0  0  0  0  0
   -3.0047   -1.3686    0.4088 C   0  0  0  0  0  0  0  0  0  0  0  0
   -1.4819    1.0568   -0.6344 C   0  0  0  0  0  0  0  0  0  0  0  0
   -1.4863    1.7574    0.5579 C   0  0  0  0  0  0  0  0  0  0  0  0
   -2.0892    2.9520    0.7442 N   0  0  0  0  0  0  0  0  0  0  0  0
   -2.7117    3.4597   -0.3280 C   0  0  0  0  0  0  0  0  0  0  0  0
   -2.7831    2.8899   -1.5375 N   0  0  0  0  0  0  0  0  0  0  0  0
   -2.1531    1.7014   -1.6601 C   0  0  0  0  0  0  0  0  0  0  0  0
   -0.5087   -0.4611   -2.1979 O   0  0  0  0  0  0  0  0  0  0  0  0
    6.0792   -0.3902    2.3336 H   0  0  0  0  0  0  0  0  0  0  0  0
    5.5669   -0.5415    0.6556 H   0  0  0  0  0  0  0  0  0  0  0  0
    5.1750    0.9348    1.6091 H   0  0  0  0  0  0  0  0  0  0  0  0
    3.7698    0.4773   -0.3646 H   0  0  0  0  0  0  0  0  0  0  0  0
    1.6550    0.6205   -1.5446 H   0  0  0  0  0  0  0  0  0  0  0  0
   -0.3072   -1.4413    1.7150 H   0  0  0  0  0  0  0  0  0  0  0  0
    1.8345   -1.5885    2.8847 H   0  0  0  0  0  0  0  0  0  0  0  0
   -1.2116   -2.4061   -0.4306 H   0  0  0  0  0  0  0  0  0  0  0  0
   -3.4734   -2.6001   -1.3832 H   0  0  0  0  0  0  0  0  0  0  0  0
   -3.5487   -0.8145   -1.6843 H   0  0  0  0  0  0  0  0  0  0  0  0
   -3.3511   -0.4127    0.7798 H   0  0  0  0  0  0  0  0  0  0  0  0
   -3.2025   -2.1936    1.0882 H   0  0  0  0  0  0  0  0  0  0  0  0
   -1.0044    1.3677    1.4507 H   0  0  0  0  0  0  0  0  0  0  0  0
   -3.2050    4.4176   -0.1999 H   0  0  0  0  0  0  0  0  0  0  0  0
   -2.2095    1.2667   -2.6560 H   0  0  0  0  0  0  0  0  0  0  0  0
   -0.3469   -1.4065   -2.3464 H   0  0  0  0  0  0  0  0  0  0  0  0
  1  2  1  0
  2  3  1  0
  3  4  2  0
  4  5  1  0
  5  6  2  0
  6  7  1  0
  7  8  2  0
  6  9  1  0
  9 10  1  0
 10 11  1  0
 11 12  1  0
  9 13  1  0
 13 14  2  0
 14 15  1  0
 15 16  2  0
 16 17  1  0
 17 18  2  0
  9 19  1  0
  8  3  1  0
 12 10  1  0
 18 13  1  0
  1 20  1  0
  1 21  1  0
  1 22  1  0
  4 23  1  0
  5 24  1  0
  7 25  1  0
  8 26  1  0
 10 27  1  0
 11 28  1  0
 11 29  1  0
 12 30  1  0
 12 31  1  0
 14 32  1  0
 16 33  1  0
 18 34  1  0
 19 35  1  0
M  END
>  <SMILES>  (71) 
COC1=CC=C(C=C1)C(C2CC2)(C3=CN=CN=C3)O

$$$$
anycymidol
     RDKit          3D

 35 37  0  0  0  0  0  0  0  0999 V2000
    5.3252   -0.0037   -0.2524 C   0  0  0  0  0  0  0  0  0  0  0  0
    4.3476   -0.6750    0.5326 O   0  0  0  0  0  0  0  0  0  0  0  0
    3.0405   -0.4842    0.1847 C   0  0  0  0  0  0  0  0  0  0  0  0
    2.5736    0.2909   -0.8685 C   0  0  0  0  0  0  0  0  0  0  0  0
    1.1959    0.3933   -1.1072 C   0  0  0  0  0  0  0  0  0  0  0  0
    0.2356   -0.2866   -0.3203 C   0  0  0  0  0  0  0  0  0  0  0  0
    0.7377   -1.0305    0.7552 C   0  0  0  0  0  0  0  0  0  0  0  0
    2.1154   -1.1375    0.9948 C   0  0  0  0  0  0  0  0  0  0  0  0
   -1.2595   -0.0754   -0.6330 C   0  0  0  0  0  0  0  0  0  0  0  0
   -2.2663   -1.1866   -0.3605 C   0  0  0  0  0  0  0  0  0  0  0  0
   -2.5150   -1.9133    0.9413 C   0  0  0  0  0  0  0  0  0  0  0  0
   -1.9277   -2.6547   -0.2354 C   0  0  0  0  0  0  0  0  0  0  0  0
   -1.7868    1.2056   -0.0155 C   0  0  0  0  0  0  0  0  0  0  0  0
   -1.6879    1.4802    1.3378 C   0  0  0  0  0  0  0  0  0  0  0  0
   -2.1664    2.5952    1.9297 N   0  0  0  0  0  0  0  0  0  0  0  0
   -2.7692    3.4704    1.1138 C   0  0  0  0  0  0  0  0  0  0  0  0
   -2.9358    3.3266   -0.2074 N   0  0  0  0  0  0  0  0  0  0  0  0
   -2.4374    2.1891   -0.7396 C   0  0  0  0  0  0  0  0  0  0  0  0
   -1.3258    0.0566   -2.0689 O   0  0  0  0  0  0  0  0  0  0  0  0
    5.2050    1.0828   -0.1884 H   0  0  0  0  0  0  0  0  0  0  0  0
    5.2979   -0.3445   -1.2927 H   0  0  0  0  0  0  0  0  0  0  0  0
    6.3098   -0.2541    0.1540 H   0  0  0  0  0  0  0  0  0  0  0  0
    3.2454    0.8389   -1.5207 H   0  0  0  0  0  0  0  0  0  0  0  0
    0.8725    1.0371   -1.9263 H   0  0  0  0  0  0  0  0  0  0  0  0
    0.0891   -1.5465    1.4502 H   0  0  0  0  0  0  0  0  0  0  0  0
    2.4679   -1.7331    1.8344 H   0  0  0  0  0  0  0  0  0  0  0  0
   -3.1807   -0.9672   -0.9175 H   0  0  0  0  0  0  0  0  0  0  0  0
   -1.9085   -1.7115    1.8108 H   0  0  0  0  0  0  0  0  0  0  0  0
   -3.5483   -2.1266    1.2031 H   0  0  0  0  0  0  0  0  0  0  0  0
   -0.8967   -2.9784   -0.1851 H   0  0  0  0  0  0  0  0  0  0  0  0
   -2.5670   -3.3627   -0.7546 H   0  0  0  0  0  0  0  0  0  0  0  0
   -1.2053    0.7906    2.0244 H   0  0  0  0  0  0  0  0  0  0  0  0
   -3.1590    4.3764    1.5639 H   0  0  0  0  0  0  0  0  0  0  0  0
   -2.5906    2.0951   -1.8121 H   0  0  0  0  0  0  0  0  0  0  0  0
   -0.9255   -0.7565   -2.4246 H   0  0  0  0  0  0  0  0  0  0  0  0
  1  2  1  0
  2  3  1  0
  3  4  2  0
  4  5  1  0
  5  6  2  0
  6  7  1  0
  7  8  2  0
  6  9  1  0
  9 10  1  0
 10 11  1  0
 11 12  1  0
  9 13  1  0
 13 14  2  0
 14 15  1  0
 15 16  2  0
 16 17  1  0
 17 18  2  0
  9 19  1  0
  8  3  1  0
 12 10  1  0
 18 13  1  0
  1 20  1  0
  1 21  1  0
  1 22  1  0
  4 23  1  0
  5 24  1  0
  7 25  1  0
  8 26  1  0
 10 27  1  0
 11 28  1  0
 11 29  1  0
 12 30  1  0
 12 31  1  0
 14 32  1  0
 16 33  1  0
 18 34  1  0
 19 35  1  0
M  END
>  <SMILES>  (72) 
COC1=CC=C(C=C1)C(C2CC2)(C3=CN=CN=C3)O

$$$$
anycymidol
     RDKit          3D

 35 37  0  0  0  0  0  0  0  0999 V2000
    4.4992    1.7572   -2.2656 C   0  0  0  0  0  0  0  0  0  0  0  0
    4.2374    0.4958   -1.6641 O   0  0  0  0  0  0  0  0  0  0  0  0
    2.9815    0.2999   -1.1606 C   0  0  0  0  0  0  0  0  0  0  0  0
    1.9260    1.2076   -1.2090 C   0  0  0  0  0  0  0  0  0  0  0  0
    0.6838    0.8766   -0.6515 C   0  0  0  0  0  0  0  0  0  0  0  0
    0.4705   -0.3661   -0.0239 C   0  0  0  0  0  0  0  0  0  0  0  0
    1.5429   -1.2725    0.0035 C   0  0  0  0  0  0  0  0  0  0  0  0
    2.7809   -0.9402   -0.5550 C   0  0  0  0  0  0  0  0  0  0  0  0
   -0.8992   -0.7332    0.5698 C   0  0  0  0  0  0  0  0  0  0  0  0
   -1.8003   -1.1514   -0.5893 C   0  0  0  0  0  0  0  0  0  0  0  0
   -2.9975   -2.0660   -0.4178 C   0  0  0  0  0  0  0  0  0  0  0  0
   -1.7777   -2.5618   -1.1419 C   0  0  0  0  0  0  0  0  0  0  0  0
   -1.4963    0.3816    1.4073 C   0  0  0  0  0  0  0  0  0  0  0  0
   -2.6929    1.0238    1.1483 C   0  0  0  0  0  0  0  0  0  0  0  0
   -3.2051    2.0145    1.9091 N   0  0  0  0  0  0  0  0  0  0  0  0
   -2.4764    2.3688    2.9766 C   0  0  0  0  0  0  0  0  0  0  0  0
   -1.3064    1.8288    3.3393 N   0  0  0  0  0  0  0  0  0  0  0  0
   -0.8431    0.8460    2.5395 C   0  0  0  0  0  0  0  0  0  0  0  0
   -0.7416   -1.8549    1.4513 O   0  0  0  0  0  0  0  0  0  0  0  0
    5.5412    1.7583   -2.5999 H   0  0  0  0  0  0  0  0  0  0  0  0
    3.8671    1.9130   -3.1461 H   0  0  0  0  0  0  0  0  0  0  0  0
    4.3804    2.5719   -1.5436 H   0  0  0  0  0  0  0  0  0  0  0  0
    2.0314    2.1822   -1.6739 H   0  0  0  0  0  0  0  0  0  0  0  0
   -0.1182    1.6099   -0.7143 H   0  0  0  0  0  0  0  0  0  0  0  0
    1.4245   -2.2528    0.4614 H   0  0  0  0  0  0  0  0  0  0  0  0
    3.5962   -1.6587   -0.5165 H   0  0  0  0  0  0  0  0  0  0  0  0
   -1.8910   -0.3626   -1.3327 H   0  0  0  0  0  0  0  0  0  0  0  0
   -3.2133   -2.4988    0.5515 H   0  0  0  0  0  0  0  0  0  0  0  0
   -3.8834   -1.8592   -1.0090 H   0  0  0  0  0  0  0  0  0  0  0  0
   -1.1593   -3.3060   -0.6518 H   0  0  0  0  0  0  0  0  0  0  0  0
   -1.8335   -2.6824   -2.2182 H   0  0  0  0  0  0  0  0  0  0  0  0
   -3.3154    0.7688    0.2955 H   0  0  0  0  0  0  0  0  0  0  0  0
   -2.8692    3.1626    3.6021 H   0  0  0  0  0  0  0  0  0  0  0  0
    0.1107    0.4222    2.8499 H   0  0  0  0  0  0  0  0  0  0  0  0
   -1.5536   -1.9229    1.9795 H   0  0  0  0  0  0  0  0  0  0  0  0
  1  2  1  0
  2  3  1  0
  3  4  2  0
  4  5  1  0
  5  6  2  0
  6  7  1  0
  7  8  2  0
  6  9  1  0
  9 10  1  0
 10 11  1  0
 11 12  1  0
  9 13  1  0
 13 14  2  0
 14 15  1  0
 15 16  2  0
 16 17  1  0
 17 18  2  0
  9 19  1  0
  8  3  1  0
 12 10  1  0
 18 13  1  0
  1 20  1  0
  1 21  1  0
  1 22  1  0
  4 23  1  0
  5 24  1  0
  7 25  1  0
  8 26  1  0
 10 27  1  0
 11 28  1  0
 11 29  1  0
 12 30  1  0
 12 31  1  0
 14 32  1  0
 16 33  1  0
 18 34  1  0
 19 35  1  0
M  END
>  <SMILES>  (73) 
COC1=CC=C(C=C1)C(C2CC2)(C3=CN=CN=C3)O

$$$$
anycymidol
     RDKit          3D

 35 37  0  0  0  0  0  0  0  0999 V2000
    5.3983   -0.0538   -0.1882 C   0  0  0  0  0  0  0  0  0  0  0  0
    4.4285    0.9024   -0.5979 O   0  0  0  0  0  0  0  0  0  0  0  0
    3.1249    0.6310   -0.2896 C   0  0  0  0  0  0  0  0  0  0  0  0
    2.2078    1.5813   -0.7385 C   0  0  0  0  0  0  0  0  0  0  0  0
    0.8374    1.4326   -0.4957 C   0  0  0  0  0  0  0  0  0  0  0  0
    0.3482    0.3215    0.2073 C   0  0  0  0  0  0  0  0  0  0  0  0
    1.2899   -0.6273    0.6585 C   0  0  0  0  0  0  0  0  0  0  0  0
    2.6599   -0.4767    0.4127 C   0  0  0  0  0  0  0  0  0  0  0  0
   -1.1422    0.0919    0.5102 C   0  0  0  0  0  0  0  0  0  0  0  0
   -2.0248    1.2498    0.0536 C   0  0  0  0  0  0  0  0  0  0  0  0
   -3.3344    1.5713    0.7451 C   0  0  0  0  0  0  0  0  0  0  0  0
   -2.1811    2.5284    0.8530 C   0  0  0  0  0  0  0  0  0  0  0  0
   -1.6861   -1.1753   -0.1185 C   0  0  0  0  0  0  0  0  0  0  0  0
   -1.4152   -1.5440   -1.4258 C   0  0  0  0  0  0  0  0  0  0  0  0
   -1.9076   -2.6490   -2.0238 N   0  0  0  0  0  0  0  0  0  0  0  0
   -2.7113   -3.4084   -1.2664 C   0  0  0  0  0  0  0  0  0  0  0  0
   -3.0599   -3.1610    0.0034 N   0  0  0  0  0  0  0  0  0  0  0  0
   -2.5371   -2.0399    0.5459 C   0  0  0  0  0  0  0  0  0  0  0  0
   -1.2469   -0.0180    1.9377 O   0  0  0  0  0  0  0  0  0  0  0  0
    5.4282   -0.1423    0.9028 H   0  0  0  0  0  0  0  0  0  0  0  0
    6.3787    0.3012   -0.5202 H   0  0  0  0  0  0  0  0  0  0  0  0
    5.2188   -1.0257   -0.6597 H   0  0  0  0  0  0  0  0  0  0  0  0
    2.5642    2.4509   -1.2867 H   0  0  0  0  0  0  0  0  0  0  0  0
    0.1742    2.2078   -0.8708 H   0  0  0  0  0  0  0  0  0  0  0  0
    0.9540   -1.5053    1.2113 H   0  0  0  0  0  0  0  0  0  0  0  0
    3.3313   -1.2438    0.7841 H   0  0  0  0  0  0  0  0  0  0  0  0
   -2.0336    1.3471   -1.0297 H   0  0  0  0  0  0  0  0  0  0  0  0
   -3.6132    1.0115    1.6312 H   0  0  0  0  0  0  0  0  0  0  0  0
   -4.1774    1.8542    0.1243 H   0  0  0  0  0  0  0  0  0  0  0  0
   -2.2480    3.4630    0.3067 H   0  0  0  0  0  0  0  0  0  0  0  0
   -1.6934    2.6200    1.8161 H   0  0  0  0  0  0  0  0  0  0  0  0
   -0.7713   -0.9436   -2.0640 H   0  0  0  0  0  0  0  0  0  0  0  0
   -3.1180   -4.3036   -1.7232 H   0  0  0  0  0  0  0  0  0  0  0  0
   -2.8414   -1.8537    1.5733 H   0  0  0  0  0  0  0  0  0  0  0  0
   -0.6014    0.6057    2.3111 H   0  0  0  0  0  0  0  0  0  0  0  0
  1  2  1  0
  2  3  1  0
  3  4  2  0
  4  5  1  0
  5  6  2  0
  6  7  1  0
  7  8  2  0
  6  9  1  0
  9 10  1  0
 10 11  1  0
 11 12  1  0
  9 13  1  0
 13 14  2  0
 14 15  1  0
 15 16  2  0
 16 17  1  0
 17 18  2  0
  9 19  1  0
  8  3  1  0
 12 10  1  0
 18 13  1  0
  1 20  1  0
  1 21  1  0
  1 22  1  0
  4 23  1  0
  5 24  1  0
  7 25  1  0
  8 26  1  0
 10 27  1  0
 11 28  1  0
 11 29  1  0
 12 30  1  0
 12 31  1  0
 14 32  1  0
 16 33  1  0
 18 34  1  0
 19 35  1  0
M  END
>  <SMILES>  (74) 
COC1=CC=C(C=C1)C(C2CC2)(C3=CN=CN=C3)O

$$$$
anycymidol
     RDKit          3D

 35 37  0  0  0  0  0  0  0  0999 V2000
   -5.4056   -0.0039    0.6335 C   0  0  0  0  0  0  0  0  0  0  0  0
   -4.2834   -0.5387    1.3239 O   0  0  0  0  0  0  0  0  0  0  0  0
   -3.0512   -0.2835    0.7892 C   0  0  0  0  0  0  0  0  0  0  0  0
   -2.7909    0.4702   -0.3526 C   0  0  0  0  0  0  0  0  0  0  0  0
   -1.4732    0.6537   -0.7918 C   0  0  0  0  0  0  0  0  0  0  0  0
   -0.3862    0.0834   -0.1064 C   0  0  0  0  0  0  0  0  0  0  0  0
   -0.6669   -0.6642    1.0517 C   0  0  0  0  0  0  0  0  0  0  0  0
   -1.9830   -0.8462    1.4877 C   0  0  0  0  0  0  0  0  0  0  0  0
    1.0600    0.3045   -0.5783 C   0  0  0  0  0  0  0  0  0  0  0  0
    1.6629    1.3989    0.2987 C   0  0  0  0  0  0  0  0  0  0  0  0
    1.4478    2.8674   -0.0054 C   0  0  0  0  0  0  0  0  0  0  0  0
    2.8202    2.2717   -0.1465 C   0  0  0  0  0  0  0  0  0  0  0  0
    1.8820   -0.9701   -0.5786 C   0  0  0  0  0  0  0  0  0  0  0  0
    1.5175   -2.0494   -1.3701 C   0  0  0  0  0  0  0  0  0  0  0  0
    2.1963   -3.2135   -1.4342 N   0  0  0  0  0  0  0  0  0  0  0  0
    3.2852   -3.2932   -0.6596 C   0  0  0  0  0  0  0  0  0  0  0  0
    3.7435   -2.3279    0.1492 N   0  0  0  0  0  0  0  0  0  0  0  0
    3.0251   -1.1850    0.1688 C   0  0  0  0  0  0  0  0  0  0  0  0
    1.0421    0.7692   -1.9367 O   0  0  0  0  0  0  0  0  0  0  0  0
   -6.3066   -0.3048    1.1767 H   0  0  0  0  0  0  0  0  0  0  0  0
   -5.4768   -0.4110   -0.3806 H   0  0  0  0  0  0  0  0  0  0  0  0
   -5.3753    1.0906    0.6197 H   0  0  0  0  0  0  0  0  0  0  0  0
   -3.5858    0.9337   -0.9271 H   0  0  0  0  0  0  0  0  0  0  0  0
   -1.3023    1.2548   -1.6836 H   0  0  0  0  0  0  0  0  0  0  0  0
    0.1343   -1.1176    1.6318 H   0  0  0  0  0  0  0  0  0  0  0  0
   -2.1766   -1.4332    2.3825 H   0  0  0  0  0  0  0  0  0  0  0  0
    1.6295    1.1329    1.3529 H   0  0  0  0  0  0  0  0  0  0  0  0
    1.2610    3.5328    0.8302 H   0  0  0  0  0  0  0  0  0  0  0  0
    0.9147    3.1421   -0.9091 H   0  0  0  0  0  0  0  0  0  0  0  0
    3.2205    2.1699   -1.1478 H   0  0  0  0  0  0  0  0  0  0  0  0
    3.5649    2.5439    0.5942 H   0  0  0  0  0  0  0  0  0  0  0  0
    0.6332   -2.0064   -2.0038 H   0  0  0  0  0  0  0  0  0  0  0  0
    3.8463   -4.2205   -0.6899 H   0  0  0  0  0  0  0  0  0  0  0  0
    3.4315   -0.4314    0.8372 H   0  0  0  0  0  0  0  0  0  0  0  0
    1.9453    0.6807   -2.2823 H   0  0  0  0  0  0  0  0  0  0  0  0
  1  2  1  0
  2  3  1  0
  3  4  2  0
  4  5  1  0
  5  6  2  0
  6  7  1  0
  7  8  2  0
  6  9  1  0
  9 10  1  0
 10 11  1  0
 11 12  1  0
  9 13  1  0
 13 14  2  0
 14 15  1  0
 15 16  2  0
 16 17  1  0
 17 18  2  0
  9 19  1  0
  8  3  1  0
 12 10  1  0
 18 13  1  0
  1 20  1  0
  1 21  1  0
  1 22  1  0
  4 23  1  0
  5 24  1  0
  7 25  1  0
  8 26  1  0
 10 27  1  0
 11 28  1  0
 11 29  1  0
 12 30  1  0
 12 31  1  0
 14 32  1  0
 16 33  1  0
 18 34  1  0
 19 35  1  0
M  END
>  <SMILES>  (75) 
COC1=CC=C(C=C1)C(C2CC2)(C3=CN=CN=C3)O

$$$$
anycymidol
     RDKit          3D

 35 37  0  0  0  0  0  0  0  0999 V2000
    4.9891    0.7807    2.0935 C   0  0  0  0  0  0  0  0  0  0  0  0
    3.7210    1.3818    2.3224 O   0  0  0  0  0  0  0  0  0  0  0  0
    2.7183    1.0550    1.4544 C   0  0  0  0  0  0  0  0  0  0  0  0
    2.8595    0.3174    0.2801 C   0  0  0  0  0  0  0  0  0  0  0  0
    1.7382    0.0308   -0.5086 C   0  0  0  0  0  0  0  0  0  0  0  0
    0.4519    0.4910   -0.1562 C   0  0  0  0  0  0  0  0  0  0  0  0
    0.3300    1.2316    1.0295 C   0  0  0  0  0  0  0  0  0  0  0  0
    1.4515    1.5164    1.8183 C   0  0  0  0  0  0  0  0  0  0  0  0
   -0.7627    0.1378   -1.0362 C   0  0  0  0  0  0  0  0  0  0  0  0
   -1.8442    1.2134   -0.9295 C   0  0  0  0  0  0  0  0  0  0  0  0
   -3.2154    1.0789   -1.5630 C   0  0  0  0  0  0  0  0  0  0  0  0
   -3.0869    1.1202   -0.0617 C   0  0  0  0  0  0  0  0  0  0  0  0
   -1.2738   -1.2661   -0.7856 C   0  0  0  0  0  0  0  0  0  0  0  0
   -1.6986   -2.0999   -1.8058 C   0  0  0  0  0  0  0  0  0  0  0  0
   -2.1908   -3.3462   -1.6247 N   0  0  0  0  0  0  0  0  0  0  0  0
   -2.2436   -3.7690   -0.3547 C   0  0  0  0  0  0  0  0  0  0  0  0
   -1.8746   -3.0635    0.7260 N   0  0  0  0  0  0  0  0  0  0  0  0
   -1.3942   -1.8249    0.4774 C   0  0  0  0  0  0  0  0  0  0  0  0
   -0.2979    0.2014   -2.3962 O   0  0  0  0  0  0  0  0  0  0  0  0
    5.6239    1.0002    2.9585 H   0  0  0  0  0  0  0  0  0  0  0  0
    4.9139   -0.3103    2.0022 H   0  0  0  0  0  0  0  0  0  0  0  0
    5.4607    1.2172    1.2035 H   0  0  0  0  0  0  0  0  0  0  0  0
    3.8250   -0.0500   -0.0557 H   0  0  0  0  0  0  0  0  0  0  0  0
    1.8771   -0.5722   -1.4052 H   0  0  0  0  0  0  0  0  0  0  0  0
   -0.6395    1.5941    1.3748 H   0  0  0  0  0  0  0  0  0  0  0  0
    1.3326    2.0934    2.7334 H   0  0  0  0  0  0  0  0  0  0  0  0
   -1.4016    2.2045   -1.0230 H   0  0  0  0  0  0  0  0  0  0  0  0
   -3.6270    1.9501   -2.0632 H   0  0  0  0  0  0  0  0  0  0  0  0
   -3.5225    0.1411   -2.0153 H   0  0  0  0  0  0  0  0  0  0  0  0
   -3.4013    2.0238    0.4546 H   0  0  0  0  0  0  0  0  0  0  0  0
   -3.3164    0.2157    0.4913 H   0  0  0  0  0  0  0  0  0  0  0  0
   -1.6533   -1.7825   -2.8471 H   0  0  0  0  0  0  0  0  0  0  0  0
   -2.6208   -4.7720   -0.1855 H   0  0  0  0  0  0  0  0  0  0  0  0
   -1.0993   -1.2853    1.3698 H   0  0  0  0  0  0  0  0  0  0  0  0
   -0.1282    1.1454   -2.5907 H   0  0  0  0  0  0  0  0  0  0  0  0
  1  2  1  0
  2  3  1  0
  3  4  2  0
  4  5  1  0
  5  6  2  0
  6  7  1  0
  7  8  2  0
  6  9  1  0
  9 10  1  0
 10 11  1  0
 11 12  1  0
  9 13  1  0
 13 14  2  0
 14 15  1  0
 15 16  2  0
 16 17  1  0
 17 18  2  0
  9 19  1  0
  8  3  1  0
 12 10  1  0
 18 13  1  0
  1 20  1  0
  1 21  1  0
  1 22  1  0
  4 23  1  0
  5 24  1  0
  7 25  1  0
  8 26  1  0
 10 27  1  0
 11 28  1  0
 11 29  1  0
 12 30  1  0
 12 31  1  0
 14 32  1  0
 16 33  1  0
 18 34  1  0
 19 35  1  0
M  END
>  <SMILES>  (76) 
COC1=CC=C(C=C1)C(C2CC2)(C3=CN=CN=C3)O

$$$$
anycymidol
     RDKit          3D

 35 37  0  0  0  0  0  0  0  0999 V2000
    5.1879   -1.2093   -0.8611 C   0  0  0  0  0  0  0  0  0  0  0  0
    3.9843   -1.7321   -1.4087 O   0  0  0  0  0  0  0  0  0  0  0  0
    2.8190   -1.1203   -1.0405 C   0  0  0  0  0  0  0  0  0  0  0  0
    2.6997   -0.0172   -0.1984 C   0  0  0  0  0  0  0  0  0  0  0  0
    1.4373    0.5167    0.0998 C   0  0  0  0  0  0  0  0  0  0  0  0
    0.2648   -0.0404   -0.4367 C   0  0  0  0  0  0  0  0  0  0  0  0
    0.4071   -1.1544   -1.2878 C   0  0  0  0  0  0  0  0  0  0  0  0
    1.6659   -1.6841   -1.5830 C   0  0  0  0  0  0  0  0  0  0  0  0
   -1.1469    0.4985   -0.1479 C   0  0  0  0  0  0  0  0  0  0  0  0
   -1.1319    1.7760    0.6872 C   0  0  0  0  0  0  0  0  0  0  0  0
   -0.8509    3.1413    0.0916 C   0  0  0  0  0  0  0  0  0  0  0  0
   -2.2337    2.8107    0.5775 C   0  0  0  0  0  0  0  0  0  0  0  0
   -2.0313   -0.5046    0.5651 C   0  0  0  0  0  0  0  0  0  0  0  0
   -3.3628   -0.6960    0.2431 C   0  0  0  0  0  0  0  0  0  0  0  0
   -4.1845   -1.5583    0.8800 N   0  0  0  0  0  0  0  0  0  0  0  0
   -3.6337   -2.2475    1.8882 C   0  0  0  0  0  0  0  0  0  0  0  0
   -2.3649   -2.1483    2.3084 N   0  0  0  0  0  0  0  0  0  0  0  0
   -1.5932   -1.2724    1.6313 C   0  0  0  0  0  0  0  0  0  0  0  0
   -1.7302    0.8041   -1.4236 O   0  0  0  0  0  0  0  0  0  0  0  0
    5.1922   -1.2885    0.2310 H   0  0  0  0  0  0  0  0  0  0  0  0
    5.3515   -0.1758   -1.1838 H   0  0  0  0  0  0  0  0  0  0  0  0
    6.0180   -1.8121   -1.2419 H   0  0  0  0  0  0  0  0  0  0  0  0
    3.5693    0.4565    0.2458 H   0  0  0  0  0  0  0  0  0  0  0  0
    1.4024    1.3790    0.7613 H   0  0  0  0  0  0  0  0  0  0  0  0
   -0.4726   -1.6230   -1.7292 H   0  0  0  0  0  0  0  0  0  0  0  0
    1.7457   -2.5465   -2.2410 H   0  0  0  0  0  0  0  0  0  0  0  0
   -0.7617    1.5955    1.6938 H   0  0  0  0  0  0  0  0  0  0  0  0
   -0.2639    3.8399    0.6778 H   0  0  0  0  0  0  0  0  0  0  0  0
   -0.7048    3.2376   -0.9778 H   0  0  0  0  0  0  0  0  0  0  0  0
   -2.5801    3.2788    1.4923 H   0  0  0  0  0  0  0  0  0  0  0  0
   -3.0127    2.6738   -0.1647 H   0  0  0  0  0  0  0  0  0  0  0  0
   -3.8333   -0.1407   -0.5651 H   0  0  0  0  0  0  0  0  0  0  0  0
   -4.2735   -2.9479    2.4133 H   0  0  0  0  0  0  0  0  0  0  0  0
   -0.5706   -1.2090    1.9954 H   0  0  0  0  0  0  0  0  0  0  0  0
   -1.0076    1.1201   -1.9918 H   0  0  0  0  0  0  0  0  0  0  0  0
  1  2  1  0
  2  3  1  0
  3  4  2  0
  4  5  1  0
  5  6  2  0
  6  7  1  0
  7  8  2  0
  6  9  1  0
  9 10  1  0
 10 11  1  0
 11 12  1  0
  9 13  1  0
 13 14  2  0
 14 15  1  0
 15 16  2  0
 16 17  1  0
 17 18  2  0
  9 19  1  0
  8  3  1  0
 12 10  1  0
 18 13  1  0
  1 20  1  0
  1 21  1  0
  1 22  1  0
  4 23  1  0
  5 24  1  0
  7 25  1  0
  8 26  1  0
 10 27  1  0
 11 28  1  0
 11 29  1  0
 12 30  1  0
 12 31  1  0
 14 32  1  0
 16 33  1  0
 18 34  1  0
 19 35  1  0
M  END
>  <SMILES>  (77) 
COC1=CC=C(C=C1)C(C2CC2)(C3=CN=CN=C3)O

$$$$
anycymidol
     RDKit          3D

 35 37  0  0  0  0  0  0  0  0999 V2000
    5.3464    0.3371   -1.0734 C   0  0  0  0  0  0  0  0  0  0  0  0
    4.5623    0.5470    0.0945 O   0  0  0  0  0  0  0  0  0  0  0  0
    3.2434    0.1952    0.0245 C   0  0  0  0  0  0  0  0  0  0  0  0
    2.6006   -0.3700   -1.0733 C   0  0  0  0  0  0  0  0  0  0  0  0
    1.2373   -0.6821   -1.0055 C   0  0  0  0  0  0  0  0  0  0  0  0
    0.4839   -0.4464    0.1627 C   0  0  0  0  0  0  0  0  0  0  0  0
    1.1461    0.1397    1.2533 C   0  0  0  0  0  0  0  0  0  0  0  0
    2.5088    0.4485    1.1831 C   0  0  0  0  0  0  0  0  0  0  0  0
   -1.0204   -0.7820    0.1762 C   0  0  0  0  0  0  0  0  0  0  0  0
   -1.5432   -0.9546    1.6004 C   0  0  0  0  0  0  0  0  0  0  0  0
   -3.0185   -1.0934    1.9193 C   0  0  0  0  0  0  0  0  0  0  0  0
   -2.2605    0.1100    2.4070 C   0  0  0  0  0  0  0  0  0  0  0  0
   -1.8290    0.1936   -0.6539 C   0  0  0  0  0  0  0  0  0  0  0  0
   -1.6211    1.5629   -0.6345 C   0  0  0  0  0  0  0  0  0  0  0  0
   -2.3379    2.4561   -1.3495 N   0  0  0  0  0  0  0  0  0  0  0  0
   -3.3031    1.9392   -2.1217 C   0  0  0  0  0  0  0  0  0  0  0  0
   -3.6077    0.6399   -2.2343 N   0  0  0  0  0  0  0  0  0  0  0  0
   -2.8561   -0.2029   -1.4928 C   0  0  0  0  0  0  0  0  0  0  0  0
   -1.1512   -2.0869   -0.4134 O   0  0  0  0  0  0  0  0  0  0  0  0
    5.3965   -0.7265   -1.3289 H   0  0  0  0  0  0  0  0  0  0  0  0
    4.9694    0.9290   -1.9140 H   0  0  0  0  0  0  0  0  0  0  0  0
    6.3643    0.6759   -0.8579 H   0  0  0  0  0  0  0  0  0  0  0  0
    3.1246   -0.5767   -2.0006 H   0  0  0  0  0  0  0  0  0  0  0  0
    0.7564   -1.1083   -1.8863 H   0  0  0  0  0  0  0  0  0  0  0  0
    0.6197    0.3756    2.1751 H   0  0  0  0  0  0  0  0  0  0  0  0
    3.0024    0.8988    2.0418 H   0  0  0  0  0  0  0  0  0  0  0  0
   -0.9029   -1.6377    2.1569 H   0  0  0  0  0  0  0  0  0  0  0  0
   -3.3087   -1.8422    2.6487 H   0  0  0  0  0  0  0  0  0  0  0  0
   -3.7569   -0.9455    1.1404 H   0  0  0  0  0  0  0  0  0  0  0  0
   -2.0436    0.1718    3.4686 H   0  0  0  0  0  0  0  0  0  0  0  0
   -2.5115    1.0665    1.9659 H   0  0  0  0  0  0  0  0  0  0  0  0
   -0.8472    2.0125   -0.0176 H   0  0  0  0  0  0  0  0  0  0  0  0
   -3.8914    2.6359   -2.7081 H   0  0  0  0  0  0  0  0  0  0  0  0
   -3.1239   -1.2518   -1.5984 H   0  0  0  0  0  0  0  0  0  0  0  0
   -0.4275   -2.6281   -0.0543 H   0  0  0  0  0  0  0  0  0  0  0  0
  1  2  1  0
  2  3  1  0
  3  4  2  0
  4  5  1  0
  5  6  2  0
  6  7  1  0
  7  8  2  0
  6  9  1  0
  9 10  1  0
 10 11  1  0
 11 12  1  0
  9 13  1  0
 13 14  2  0
 14 15  1  0
 15 16  2  0
 16 17  1  0
 17 18  2  0
  9 19  1  0
  8  3  1  0
 12 10  1  0
 18 13  1  0
  1 20  1  0
  1 21  1  0
  1 22  1  0
  4 23  1  0
  5 24  1  0
  7 25  1  0
  8 26  1  0
 10 27  1  0
 11 28  1  0
 11 29  1  0
 12 30  1  0
 12 31  1  0
 14 32  1  0
 16 33  1  0
 18 34  1  0
 19 35  1  0
M  END
>  <SMILES>  (78) 
COC1=CC=C(C=C1)C(C2CC2)(C3=CN=CN=C3)O

$$$$
anycymidol
     RDKit          3D

 35 37  0  0  0  0  0  0  0  0999 V2000
    4.7600    0.3756   -1.8702 C   0  0  0  0  0  0  0  0  0  0  0  0
    4.3474    0.3099   -0.5109 O   0  0  0  0  0  0  0  0  0  0  0  0
    3.0032    0.2275   -0.2771 C   0  0  0  0  0  0  0  0  0  0  0  0
    2.0035    0.1564   -1.2427 C   0  0  0  0  0  0  0  0  0  0  0  0
    0.6572    0.0731   -0.8612 C   0  0  0  0  0  0  0  0  0  0  0  0
    0.2727    0.0578    0.4940 C   0  0  0  0  0  0  0  0  0  0  0  0
    1.2996    0.1342    1.4518 C   0  0  0  0  0  0  0  0  0  0  0  0
    2.6429    0.2155    1.0692 C   0  0  0  0  0  0  0  0  0  0  0  0
   -1.2058   -0.0415    0.9061 C   0  0  0  0  0  0  0  0  0  0  0  0
   -1.7599   -1.4657    0.8835 C   0  0  0  0  0  0  0  0  0  0  0  0
   -1.3246   -2.5680   -0.0604 C   0  0  0  0  0  0  0  0  0  0  0  0
   -0.9716   -2.6540    1.3986 C   0  0  0  0  0  0  0  0  0  0  0  0
   -2.0836    0.9048    0.1062 C   0  0  0  0  0  0  0  0  0  0  0  0
   -2.8708    0.5243   -0.9668 C   0  0  0  0  0  0  0  0  0  0  0  0
   -3.6196    1.3710   -1.7050 N   0  0  0  0  0  0  0  0  0  0  0  0
   -3.5648    2.6604   -1.3426 C   0  0  0  0  0  0  0  0  0  0  0  0
   -2.8375    3.1632   -0.3373 N   0  0  0  0  0  0  0  0  0  0  0  0
   -2.1094    2.2663    0.3626 C   0  0  0  0  0  0  0  0  0  0  0  0
   -1.3328    0.3925    2.2706 O   0  0  0  0  0  0  0  0  0  0  0  0
    5.8510    0.4590   -1.8846 H   0  0  0  0  0  0  0  0  0  0  0  0
    4.3516    1.2629   -2.3652 H   0  0  0  0  0  0  0  0  0  0  0  0
    4.4890   -0.5385   -2.4088 H   0  0  0  0  0  0  0  0  0  0  0  0
    2.2315    0.1644   -2.3034 H   0  0  0  0  0  0  0  0  0  0  0  0
   -0.0899    0.0189   -1.6506 H   0  0  0  0  0  0  0  0  0  0  0  0
    1.0729    0.1408    2.5152 H   0  0  0  0  0  0  0  0  0  0  0  0
    3.4156    0.2765    1.8321 H   0  0  0  0  0  0  0  0  0  0  0  0
   -2.8117   -1.4611    1.1699 H   0  0  0  0  0  0  0  0  0  0  0  0
   -2.0874   -3.2432   -0.4349 H   0  0  0  0  0  0  0  0  0  0  0  0
   -0.5119   -2.4125   -0.7584 H   0  0  0  0  0  0  0  0  0  0  0  0
    0.0730   -2.5404    1.6646 H   0  0  0  0  0  0  0  0  0  0  0  0
   -1.4953   -3.3884    2.0017 H   0  0  0  0  0  0  0  0  0  0  0  0
   -2.9291   -0.5088   -1.2973 H   0  0  0  0  0  0  0  0  0  0  0  0
   -4.1611    3.3602   -1.9172 H   0  0  0  0  0  0  0  0  0  0  0  0
   -1.5190    2.6951    1.1699 H   0  0  0  0  0  0  0  0  0  0  0  0
   -1.1852   -0.3885    2.8288 H   0  0  0  0  0  0  0  0  0  0  0  0
  1  2  1  0
  2  3  1  0
  3  4  2  0
  4  5  1  0
  5  6  2  0
  6  7  1  0
  7  8  2  0
  6  9  1  0
  9 10  1  0
 10 11  1  0
 11 12  1  0
  9 13  1  0
 13 14  2  0
 14 15  1  0
 15 16  2  0
 16 17  1  0
 17 18  2  0
  9 19  1  0
  8  3  1  0
 12 10  1  0
 18 13  1  0
  1 20  1  0
  1 21  1  0
  1 22  1  0
  4 23  1  0
  5 24  1  0
  7 25  1  0
  8 26  1  0
 10 27  1  0
 11 28  1  0
 11 29  1  0
 12 30  1  0
 12 31  1  0
 14 32  1  0
 16 33  1  0
 18 34  1  0
 19 35  1  0
M  END
>  <SMILES>  (79) 
COC1=CC=C(C=C1)C(C2CC2)(C3=CN=CN=C3)O

$$$$
anycymidol
     RDKit          3D

 35 37  0  0  0  0  0  0  0  0999 V2000
    5.3293    0.9763    0.7034 C   0  0  0  0  0  0  0  0  0  0  0  0
    4.5464   -0.2093    0.6397 O   0  0  0  0  0  0  0  0  0  0  0  0
    3.2370   -0.0661    0.2746 C   0  0  0  0  0  0  0  0  0  0  0  0
    2.6036    1.1267   -0.0628 C   0  0  0  0  0  0  0  0  0  0  0  0
    1.2496    1.1268   -0.4195 C   0  0  0  0  0  0  0  0  0  0  0  0
    0.4967   -0.0646   -0.4573 C   0  0  0  0  0  0  0  0  0  0  0  0
    1.1489   -1.2548   -0.0974 C   0  0  0  0  0  0  0  0  0  0  0  0
    2.5024   -1.2519    0.2565 C   0  0  0  0  0  0  0  0  0  0  0  0
   -0.9980   -0.0063   -0.8293 C   0  0  0  0  0  0  0  0  0  0  0  0
   -1.5080   -1.3616   -1.3138 C   0  0  0  0  0  0  0  0  0  0  0  0
   -2.9773   -1.6434   -1.5574 C   0  0  0  0  0  0  0  0  0  0  0  0
   -2.2492   -2.3752   -0.4642 C   0  0  0  0  0  0  0  0  0  0  0  0
   -1.8371    0.5985    0.2774 C   0  0  0  0  0  0  0  0  0  0  0  0
   -2.8578    1.5026    0.0394 C   0  0  0  0  0  0  0  0  0  0  0  0
   -3.6359    2.0490    0.9991 N   0  0  0  0  0  0  0  0  0  0  0  0
   -3.3657    1.6637    2.2530 C   0  0  0  0  0  0  0  0  0  0  0  0
   -2.4106    0.7993    2.6210 N   0  0  0  0  0  0  0  0  0  0  0  0
   -1.6660    0.2895    1.6166 C   0  0  0  0  0  0  0  0  0  0  0  0
   -1.0970    0.8463   -1.9829 O   0  0  0  0  0  0  0  0  0  0  0  0
    4.9318    1.6726    1.4494 H   0  0  0  0  0  0  0  0  0  0  0  0
    5.4065    1.4512   -0.2802 H   0  0  0  0  0  0  0  0  0  0  0  0
    6.3389    0.6937    1.0167 H   0  0  0  0  0  0  0  0  0  0  0  0
    3.1278    2.0766   -0.0540 H   0  0  0  0  0  0  0  0  0  0  0  0
    0.7754    2.0781   -0.6626 H   0  0  0  0  0  0  0  0  0  0  0  0
    0.6215   -2.2055   -0.0766 H   0  0  0  0  0  0  0  0  0  0  0  0
    2.9885   -2.1865    0.5282 H   0  0  0  0  0  0  0  0  0  0  0  0
   -0.8465   -1.7609   -2.0814 H   0  0  0  0  0  0  0  0  0  0  0  0
   -3.7237   -0.9134   -1.2684 H   0  0  0  0  0  0  0  0  0  0  0  0
   -3.2432   -2.1976   -2.4514 H   0  0  0  0  0  0  0  0  0  0  0  0
   -2.5283   -2.1466    0.5568 H   0  0  0  0  0  0  0  0  0  0  0  0
   -2.0281   -3.4257   -0.6226 H   0  0  0  0  0  0  0  0  0  0  0  0
   -3.0979    1.8281   -0.9703 H   0  0  0  0  0  0  0  0  0  0  0  0
   -3.9759    2.0894    3.0416 H   0  0  0  0  0  0  0  0  0  0  0  0
   -0.9011   -0.4089    1.9466 H   0  0  0  0  0  0  0  0  0  0  0  0
   -0.3570    0.6098   -2.5678 H   0  0  0  0  0  0  0  0  0  0  0  0
  1  2  1  0
  2  3  1  0
  3  4  2  0
  4  5  1  0
  5  6  2  0
  6  7  1  0
  7  8  2  0
  6  9  1  0
  9 10  1  0
 10 11  1  0
 11 12  1  0
  9 13  1  0
 13 14  2  0
 14 15  1  0
 15 16  2  0
 16 17  1  0
 17 18  2  0
  9 19  1  0
  8  3  1  0
 12 10  1  0
 18 13  1  0
  1 20  1  0
  1 21  1  0
  1 22  1  0
  4 23  1  0
  5 24  1  0
  7 25  1  0
  8 26  1  0
 10 27  1  0
 11 28  1  0
 11 29  1  0
 12 30  1  0
 12 31  1  0
 14 32  1  0
 16 33  1  0
 18 34  1  0
 19 35  1  0
M  END
>  <SMILES>  (80) 
COC1=CC=C(C=C1)C(C2CC2)(C3=CN=CN=C3)O

$$$$
anycymidol
     RDKit          3D

 35 37  0  0  0  0  0  0  0  0999 V2000
    5.2300    0.9278   -0.8902 C   0  0  0  0  0  0  0  0  0  0  0  0
    4.5580   -0.0636   -0.1233 O   0  0  0  0  0  0  0  0  0  0  0  0
    3.1922   -0.0638   -0.1751 C   0  0  0  0  0  0  0  0  0  0  0  0
    2.5770   -1.0335    0.6168 C   0  0  0  0  0  0  0  0  0  0  0  0
    1.1829   -1.1495    0.6630 C   0  0  0  0  0  0  0  0  0  0  0  0
    0.3650   -0.2919   -0.0876 C   0  0  0  0  0  0  0  0  0  0  0  0
    1.0035    0.6797   -0.8869 C   0  0  0  0  0  0  0  0  0  0  0  0
    2.3982    0.7943   -0.9299 C   0  0  0  0  0  0  0  0  0  0  0  0
   -1.1716   -0.3601   -0.0859 C   0  0  0  0  0  0  0  0  0  0  0  0
   -1.7120   -1.5237    0.7401 C   0  0  0  0  0  0  0  0  0  0  0  0
   -1.7676   -2.9458    0.2179 C   0  0  0  0  0  0  0  0  0  0  0  0
   -3.0420   -2.1757    0.4193 C   0  0  0  0  0  0  0  0  0  0  0  0
   -1.8204    0.9088    0.4295 C   0  0  0  0  0  0  0  0  0  0  0  0
   -2.9321    1.4802   -0.1630 C   0  0  0  0  0  0  0  0  0  0  0  0
   -3.5487    2.5936    0.2890 N   0  0  0  0  0  0  0  0  0  0  0  0
   -3.0205    3.1428    1.3910 C   0  0  0  0  0  0  0  0  0  0  0  0
   -1.9570    2.6849    2.0660 N   0  0  0  0  0  0  0  0  0  0  0  0
   -1.3833    1.5711    1.5647 C   0  0  0  0  0  0  0  0  0  0  0  0
   -1.5638   -0.5581   -1.4527 O   0  0  0  0  0  0  0  0  0  0  0  0
    6.3052    0.8023   -0.7300 H   0  0  0  0  0  0  0  0  0  0  0  0
    4.9592    1.9355   -0.5579 H   0  0  0  0  0  0  0  0  0  0  0  0
    5.0353    0.7978   -1.9599 H   0  0  0  0  0  0  0  0  0  0  0  0
    3.1915   -1.7092    1.2082 H   0  0  0  0  0  0  0  0  0  0  0  0
    0.7647   -1.9255    1.2987 H   0  0  0  0  0  0  0  0  0  0  0  0
    0.4064    1.3657   -1.4887 H   0  0  0  0  0  0  0  0  0  0  0  0
    2.8267    1.5647   -1.5626 H   0  0  0  0  0  0  0  0  0  0  0  0
   -1.4968   -1.4005    1.7991 H   0  0  0  0  0  0  0  0  0  0  0  0
   -1.4626   -3.1539   -0.8007 H   0  0  0  0  0  0  0  0  0  0  0  0
   -1.5486   -3.7498    0.9121 H   0  0  0  0  0  0  0  0  0  0  0  0
   -3.6817   -2.4536    1.2497 H   0  0  0  0  0  0  0  0  0  0  0  0
   -3.5859   -1.8559   -0.4629 H   0  0  0  0  0  0  0  0  0  0  0  0
   -3.3836    1.0459   -1.0520 H   0  0  0  0  0  0  0  0  0  0  0  0
   -3.4980    4.0384    1.7723 H   0  0  0  0  0  0  0  0  0  0  0  0
   -0.5269    1.2182    2.1343 H   0  0  0  0  0  0  0  0  0  0  0  0
   -0.8927   -1.1375   -1.8516 H   0  0  0  0  0  0  0  0  0  0  0  0
  1  2  1  0
  2  3  1  0
  3  4  2  0
  4  5  1  0
  5  6  2  0
  6  7  1  0
  7  8  2  0
  6  9  1  0
  9 10  1  0
 10 11  1  0
 11 12  1  0
  9 13  1  0
 13 14  2  0
 14 15  1  0
 15 16  2  0
 16 17  1  0
 17 18  2  0
  9 19  1  0
  8  3  1  0
 12 10  1  0
 18 13  1  0
  1 20  1  0
  1 21  1  0
  1 22  1  0
  4 23  1  0
  5 24  1  0
  7 25  1  0
  8 26  1  0
 10 27  1  0
 11 28  1  0
 11 29  1  0
 12 30  1  0
 12 31  1  0
 14 32  1  0
 16 33  1  0
 18 34  1  0
 19 35  1  0
M  END
>  <SMILES>  (81) 
COC1=CC=C(C=C1)C(C2CC2)(C3=CN=CN=C3)O

$$$$
anycymidol
     RDKit          3D

 35 37  0  0  0  0  0  0  0  0999 V2000
    4.7148   -2.6224    0.7024 C   0  0  0  0  0  0  0  0  0  0  0  0
    3.5720   -2.3154    1.4908 O   0  0  0  0  0  0  0  0  0  0  0  0
    2.5668   -1.6217    0.8762 C   0  0  0  0  0  0  0  0  0  0  0  0
    2.5468   -1.2094   -0.4540 C   0  0  0  0  0  0  0  0  0  0  0  0
    1.4470   -0.5023   -0.9572 C   0  0  0  0  0  0  0  0  0  0  0  0
    0.3458   -0.1839   -0.1432 C   0  0  0  0  0  0  0  0  0  0  0  0
    0.3776   -0.6192    1.1942 C   0  0  0  0  0  0  0  0  0  0  0  0
    1.4768   -1.3244    1.6940 C   0  0  0  0  0  0  0  0  0  0  0  0
   -0.8690    0.5730   -0.7037 C   0  0  0  0  0  0  0  0  0  0  0  0
   -1.9554   -0.4596   -0.9928 C   0  0  0  0  0  0  0  0  0  0  0  0
   -3.0572   -0.2383   -2.0108 C   0  0  0  0  0  0  0  0  0  0  0  0
   -1.9776   -1.2463   -2.2873 C   0  0  0  0  0  0  0  0  0  0  0  0
   -1.3430    1.6871    0.2098 C   0  0  0  0  0  0  0  0  0  0  0  0
   -0.5070    2.7469    0.5293 C   0  0  0  0  0  0  0  0  0  0  0  0
   -0.8526    3.7792    1.3262 N   0  0  0  0  0  0  0  0  0  0  0  0
   -2.0929    3.7346    1.8279 C   0  0  0  0  0  0  0  0  0  0  0  0
   -2.9957    2.7706    1.6001 N   0  0  0  0  0  0  0  0  0  0  0  0
   -2.5943    1.7660    0.7925 C   0  0  0  0  0  0  0  0  0  0  0  0
   -0.4981    1.2007   -1.9407 O   0  0  0  0  0  0  0  0  0  0  0  0
    4.4521   -3.2777   -0.1347 H   0  0  0  0  0  0  0  0  0  0  0  0
    5.2098   -1.7108    0.3517 H   0  0  0  0  0  0  0  0  0  0  0  0
    5.4237   -3.1624    1.3375 H   0  0  0  0  0  0  0  0  0  0  0  0
    3.3666   -1.4212   -1.1321 H   0  0  0  0  0  0  0  0  0  0  0  0
    1.4584   -0.2009   -2.0036 H   0  0  0  0  0  0  0  0  0  0  0  0
   -0.4519   -0.4149    1.8680 H   0  0  0  0  0  0  0  0  0  0  0  0
    1.4821   -1.6456    2.7330 H   0  0  0  0  0  0  0  0  0  0  0  0
   -2.2207   -1.0240   -0.1014 H   0  0  0  0  0  0  0  0  0  0  0  0
   -4.0477   -0.6139   -1.7765 H   0  0  0  0  0  0  0  0  0  0  0  0
   -3.0653    0.6630   -2.6116 H   0  0  0  0  0  0  0  0  0  0  0  0
   -2.2327   -2.2989   -2.2329 H   0  0  0  0  0  0  0  0  0  0  0  0
   -1.2459   -1.0142   -3.0535 H   0  0  0  0  0  0  0  0  0  0  0  0
    0.5066    2.7997    0.1353 H   0  0  0  0  0  0  0  0  0  0  0  0
   -2.3938    4.5508    2.4750 H   0  0  0  0  0  0  0  0  0  0  0  0
   -3.3560    1.0077    0.6360 H   0  0  0  0  0  0  0  0  0  0  0  0
   -1.1902    1.8480   -2.1530 H   0  0  0  0  0  0  0  0  0  0  0  0
  1  2  1  0
  2  3  1  0
  3  4  2  0
  4  5  1  0
  5  6  2  0
  6  7  1  0
  7  8  2  0
  6  9  1  0
  9 10  1  0
 10 11  1  0
 11 12  1  0
  9 13  1  0
 13 14  2  0
 14 15  1  0
 15 16  2  0
 16 17  1  0
 17 18  2  0
  9 19  1  0
  8  3  1  0
 12 10  1  0
 18 13  1  0
  1 20  1  0
  1 21  1  0
  1 22  1  0
  4 23  1  0
  5 24  1  0
  7 25  1  0
  8 26  1  0
 10 27  1  0
 11 28  1  0
 11 29  1  0
 12 30  1  0
 12 31  1  0
 14 32  1  0
 16 33  1  0
 18 34  1  0
 19 35  1  0
M  END
>  <SMILES>  (82) 
COC1=CC=C(C=C1)C(C2CC2)(C3=CN=CN=C3)O

$$$$
anycymidol
     RDKit          3D

 35 37  0  0  0  0  0  0  0  0999 V2000
    5.0370    1.3245    1.2745 C   0  0  0  0  0  0  0  0  0  0  0  0
    4.5517    0.4893    0.2312 O   0  0  0  0  0  0  0  0  0  0  0  0
    3.1983    0.3077    0.1638 C   0  0  0  0  0  0  0  0  0  0  0  0
    2.7677   -0.4947   -0.8924 C   0  0  0  0  0  0  0  0  0  0  0  0
    1.4082   -0.7621   -1.0804 C   0  0  0  0  0  0  0  0  0  0  0  0
    0.4395   -0.2258   -0.2166 C   0  0  0  0  0  0  0  0  0  0  0  0
    0.8905    0.5708    0.8537 C   0  0  0  0  0  0  0  0  0  0  0  0
    2.2534    0.8384    1.0389 C   0  0  0  0  0  0  0  0  0  0  0  0
   -1.0550   -0.5328   -0.4056 C   0  0  0  0  0  0  0  0  0  0  0  0
   -1.4218   -1.6356    0.5842 C   0  0  0  0  0  0  0  0  0  0  0  0
   -1.1871   -3.0978    0.2646 C   0  0  0  0  0  0  0  0  0  0  0  0
   -2.5922   -2.5771    0.3772 C   0  0  0  0  0  0  0  0  0  0  0  0
   -1.9313    0.6975   -0.2677 C   0  0  0  0  0  0  0  0  0  0  0  0
   -2.9229    0.8714    0.6799 C   0  0  0  0  0  0  0  0  0  0  0  0
   -3.6914    1.9765    0.7833 N   0  0  0  0  0  0  0  0  0  0  0  0
   -3.4465    2.9451   -0.1101 C   0  0  0  0  0  0  0  0  0  0  0  0
   -2.5202    2.9029   -1.0756 N   0  0  0  0  0  0  0  0  0  0  0  0
   -1.7810    1.7755   -1.1278 C   0  0  0  0  0  0  0  0  0  0  0  0
   -1.2664   -1.0271   -1.7365 O   0  0  0  0  0  0  0  0  0  0  0  0
    6.1259    1.3784    1.1805 H   0  0  0  0  0  0  0  0  0  0  0  0
    4.6440    2.3424    1.1814 H   0  0  0  0  0  0  0  0  0  0  0  0
    4.8085    0.9002    2.2578 H   0  0  0  0  0  0  0  0  0  0  0  0
    3.4970   -0.9190   -1.5783 H   0  0  0  0  0  0  0  0  0  0  0  0
    1.1130   -1.3983   -1.9128 H   0  0  0  0  0  0  0  0  0  0  0  0
    0.1831    0.9985    1.5619 H   0  0  0  0  0  0  0  0  0  0  0  0
    2.5396    1.4636    1.8781 H   0  0  0  0  0  0  0  0  0  0  0  0
   -1.2054   -1.3437    1.6094 H   0  0  0  0  0  0  0  0  0  0  0  0
   -0.8102   -3.7331    1.0585 H   0  0  0  0  0  0  0  0  0  0  0  0
   -0.8184   -3.3656   -0.7197 H   0  0  0  0  0  0  0  0  0  0  0  0
   -3.1781   -2.5201   -0.5322 H   0  0  0  0  0  0  0  0  0  0  0  0
   -3.1685   -2.8703    1.2484 H   0  0  0  0  0  0  0  0  0  0  0  0
   -3.1554    0.1131    1.4220 H   0  0  0  0  0  0  0  0  0  0  0  0
   -4.0524    3.8419   -0.0457 H   0  0  0  0  0  0  0  0  0  0  0  0
   -1.0316    1.7621   -1.9176 H   0  0  0  0  0  0  0  0  0  0  0  0
   -2.2218   -0.9965   -1.9070 H   0  0  0  0  0  0  0  0  0  0  0  0
  1  2  1  0
  2  3  1  0
  3  4  2  0
  4  5  1  0
  5  6  2  0
  6  7  1  0
  7  8  2  0
  6  9  1  0
  9 10  1  0
 10 11  1  0
 11 12  1  0
  9 13  1  0
 13 14  2  0
 14 15  1  0
 15 16  2  0
 16 17  1  0
 17 18  2  0
  9 19  1  0
  8  3  1  0
 12 10  1  0
 18 13  1  0
  1 20  1  0
  1 21  1  0
  1 22  1  0
  4 23  1  0
  5 24  1  0
  7 25  1  0
  8 26  1  0
 10 27  1  0
 11 28  1  0
 11 29  1  0
 12 30  1  0
 12 31  1  0
 14 32  1  0
 16 33  1  0
 18 34  1  0
 19 35  1  0
M  END
>  <SMILES>  (83) 
COC1=CC=C(C=C1)C(C2CC2)(C3=CN=CN=C3)O

$$$$
anycymidol
     RDKit          3D

 35 37  0  0  0  0  0  0  0  0999 V2000
    5.3756   -0.0927    0.4609 C   0  0  0  0  0  0  0  0  0  0  0  0
    4.4153   -1.1289    0.3002 O   0  0  0  0  0  0  0  0  0  0  0  0
    3.1169   -0.7465    0.1114 C   0  0  0  0  0  0  0  0  0  0  0  0
    2.6476    0.5628    0.0369 C   0  0  0  0  0  0  0  0  0  0  0  0
    1.2829    0.8190   -0.1617 C   0  0  0  0  0  0  0  0  0  0  0  0
    0.3555   -0.2281   -0.2899 C   0  0  0  0  0  0  0  0  0  0  0  0
    0.8505   -1.5452   -0.2138 C   0  0  0  0  0  0  0  0  0  0  0  0
    2.2105   -1.7974   -0.0159 C   0  0  0  0  0  0  0  0  0  0  0  0
   -1.1519   -0.0124   -0.5086 C   0  0  0  0  0  0  0  0  0  0  0  0
   -1.5175    1.4581   -0.6918 C   0  0  0  0  0  0  0  0  0  0  0  0
   -1.3328    2.1912   -2.0057 C   0  0  0  0  0  0  0  0  0  0  0  0
   -2.7184    1.8826   -1.5130 C   0  0  0  0  0  0  0  0  0  0  0  0
   -2.0003   -0.5580    0.6223 C   0  0  0  0  0  0  0  0  0  0  0  0
   -1.6869   -0.3709    1.9583 C   0  0  0  0  0  0  0  0  0  0  0  0
   -2.4390   -0.8140    2.9875 N   0  0  0  0  0  0  0  0  0  0  0  0
   -3.5561   -1.4719    2.6474 C   0  0  0  0  0  0  0  0  0  0  0  0
   -3.9783   -1.7117    1.3988 N   0  0  0  0  0  0  0  0  0  0  0  0
   -3.1845   -1.2414    0.4122 C   0  0  0  0  0  0  0  0  0  0  0  0
   -1.4877   -0.7112   -1.7169 O   0  0  0  0  0  0  0  0  0  0  0  0
    5.4405    0.5277   -0.4390 H   0  0  0  0  0  0  0  0  0  0  0  0
    6.3522   -0.5624    0.6125 H   0  0  0  0  0  0  0  0  0  0  0  0
    5.1572    0.5147    1.3455 H   0  0  0  0  0  0  0  0  0  0  0  0
    3.3159    1.4131    0.1283 H   0  0  0  0  0  0  0  0  0  0  0  0
    0.9717    1.8596   -0.2136 H   0  0  0  0  0  0  0  0  0  0  0  0
    0.1712   -2.3925   -0.3071 H   0  0  0  0  0  0  0  0  0  0  0  0
    2.5643   -2.8243    0.0417 H   0  0  0  0  0  0  0  0  0  0  0  0
   -1.3489    2.0318    0.2167 H   0  0  0  0  0  0  0  0  0  0  0  0
   -1.0027    3.2236   -1.9689 H   0  0  0  0  0  0  0  0  0  0  0  0
   -0.9771    1.6494   -2.8740 H   0  0  0  0  0  0  0  0  0  0  0  0
   -3.2881    1.1267   -2.0425 H   0  0  0  0  0  0  0  0  0  0  0  0
   -3.3225    2.7017   -1.1386 H   0  0  0  0  0  0  0  0  0  0  0  0
   -0.7895    0.1624    2.2626 H   0  0  0  0  0  0  0  0  0  0  0  0
   -4.1758   -1.8420    3.4564 H   0  0  0  0  0  0  0  0  0  0  0  0
   -3.5513   -1.4390   -0.5924 H   0  0  0  0  0  0  0  0  0  0  0  0
   -0.7185   -0.6342   -2.3063 H   0  0  0  0  0  0  0  0  0  0  0  0
  1  2  1  0
  2  3  1  0
  3  4  2  0
  4  5  1  0
  5  6  2  0
  6  7  1  0
  7  8  2  0
  6  9  1  0
  9 10  1  0
 10 11  1  0
 11 12  1  0
  9 13  1  0
 13 14  2  0
 14 15  1  0
 15 16  2  0
 16 17  1  0
 17 18  2  0
  9 19  1  0
  8  3  1  0
 12 10  1  0
 18 13  1  0
  1 20  1  0
  1 21  1  0
  1 22  1  0
  4 23  1  0
  5 24  1  0
  7 25  1  0
  8 26  1  0
 10 27  1  0
 11 28  1  0
 11 29  1  0
 12 30  1  0
 12 31  1  0
 14 32  1  0
 16 33  1  0
 18 34  1  0
 19 35  1  0
M  END
>  <SMILES>  (84) 
COC1=CC=C(C=C1)C(C2CC2)(C3=CN=CN=C3)O

$$$$
anycymidol
     RDKit          3D

 35 37  0  0  0  0  0  0  0  0999 V2000
    5.3295   -0.9180   -0.1503 C   0  0  0  0  0  0  0  0  0  0  0  0
    4.4367   -0.7649    0.9457 O   0  0  0  0  0  0  0  0  0  0  0  0
    3.1029   -0.7005    0.6539 C   0  0  0  0  0  0  0  0  0  0  0  0
    2.5336   -0.7879   -0.6144 C   0  0  0  0  0  0  0  0  0  0  0  0
    1.1431   -0.7071   -0.7749 C   0  0  0  0  0  0  0  0  0  0  0  0
    0.2888   -0.5484    0.3304 C   0  0  0  0  0  0  0  0  0  0  0  0
    0.8846   -0.4441    1.6019 C   0  0  0  0  0  0  0  0  0  0  0  0
    2.2709   -0.5255    1.7586 C   0  0  0  0  0  0  0  0  0  0  0  0
   -1.2425   -0.4289    0.1970 C   0  0  0  0  0  0  0  0  0  0  0  0
   -1.7414   -1.0738   -1.0945 C   0  0  0  0  0  0  0  0  0  0  0  0
   -2.0521   -0.3353   -2.3818 C   0  0  0  0  0  0  0  0  0  0  0  0
   -3.1714   -0.9362   -1.5777 C   0  0  0  0  0  0  0  0  0  0  0  0
   -1.7226    0.9948    0.3896 C   0  0  0  0  0  0  0  0  0  0  0  0
   -2.8537    1.3150    1.1205 C   0  0  0  0  0  0  0  0  0  0  0  0
   -3.3214    2.5701    1.2971 N   0  0  0  0  0  0  0  0  0  0  0  0
   -2.6100    3.5414    0.7106 C   0  0  0  0  0  0  0  0  0  0  0  0
   -1.5014    3.3705   -0.0222 N   0  0  0  0  0  0  0  0  0  0  0  0
   -1.0838    2.0940   -0.1598 C   0  0  0  0  0  0  0  0  0  0  0  0
   -1.8105   -1.2380    1.2409 O   0  0  0  0  0  0  0  0  0  0  0  0
    5.1527   -1.8633   -0.6740 H   0  0  0  0  0  0  0  0  0  0  0  0
    6.3479   -0.9444    0.2492 H   0  0  0  0  0  0  0  0  0  0  0  0
    5.2627   -0.0669   -0.8361 H   0  0  0  0  0  0  0  0  0  0  0  0
    3.1416   -0.9147   -1.5044 H   0  0  0  0  0  0  0  0  0  0  0  0
    0.7468   -0.7640   -1.7864 H   0  0  0  0  0  0  0  0  0  0  0  0
    0.2678   -0.2885    2.4868 H   0  0  0  0  0  0  0  0  0  0  0  0
    2.7053   -0.4438    2.7524 H   0  0  0  0  0  0  0  0  0  0  0  0
   -1.3345   -2.0790   -1.1950 H   0  0  0  0  0  0  0  0  0  0  0  0
   -2.0007    0.7453   -2.4288 H   0  0  0  0  0  0  0  0  0  0  0  0
   -1.7902   -0.8179   -3.3177 H   0  0  0  0  0  0  0  0  0  0  0  0
   -3.6596   -1.8232   -1.9677 H   0  0  0  0  0  0  0  0  0  0  0  0
   -3.8511   -0.2612   -1.0716 H   0  0  0  0  0  0  0  0  0  0  0  0
   -3.4491    0.5436    1.6039 H   0  0  0  0  0  0  0  0  0  0  0  0
   -2.9639    4.5580    0.8398 H   0  0  0  0  0  0  0  0  0  0  0  0
   -0.1830    1.9884   -0.7588 H   0  0  0  0  0  0  0  0  0  0  0  0
   -1.2723   -2.0461    1.2933 H   0  0  0  0  0  0  0  0  0  0  0  0
  1  2  1  0
  2  3  1  0
  3  4  2  0
  4  5  1  0
  5  6  2  0
  6  7  1  0
  7  8  2  0
  6  9  1  0
  9 10  1  0
 10 11  1  0
 11 12  1  0
  9 13  1  0
 13 14  2  0
 14 15  1  0
 15 16  2  0
 16 17  1  0
 17 18  2  0
  9 19  1  0
  8  3  1  0
 12 10  1  0
 18 13  1  0
  1 20  1  0
  1 21  1  0
  1 22  1  0
  4 23  1  0
  5 24  1  0
  7 25  1  0
  8 26  1  0
 10 27  1  0
 11 28  1  0
 11 29  1  0
 12 30  1  0
 12 31  1  0
 14 32  1  0
 16 33  1  0
 18 34  1  0
 19 35  1  0
M  END
>  <SMILES>  (85) 
COC1=CC=C(C=C1)C(C2CC2)(C3=CN=CN=C3)O

$$$$
anycymidol
     RDKit          3D

 35 37  0  0  0  0  0  0  0  0999 V2000
    4.5809   -2.5987    0.9993 C   0  0  0  0  0  0  0  0  0  0  0  0
    3.2291   -3.0297    1.0618 O   0  0  0  0  0  0  0  0  0  0  0  0
    2.2799   -2.1483    0.6233 C   0  0  0  0  0  0  0  0  0  0  0  0
    2.5210   -0.9218    0.0106 C   0  0  0  0  0  0  0  0  0  0  0  0
    1.4534   -0.1094   -0.3977 C   0  0  0  0  0  0  0  0  0  0  0  0
    0.1187   -0.5035   -0.2021 C   0  0  0  0  0  0  0  0  0  0  0  0
   -0.1041   -1.7458    0.4222 C   0  0  0  0  0  0  0  0  0  0  0  0
    0.9623   -2.5566    0.8220 C   0  0  0  0  0  0  0  0  0  0  0  0
   -1.0909    0.3562   -0.6122 C   0  0  0  0  0  0  0  0  0  0  0  0
   -0.6965    1.5427   -1.4881 C   0  0  0  0  0  0  0  0  0  0  0  0
   -1.6240    2.1079   -2.5369 C   0  0  0  0  0  0  0  0  0  0  0  0
   -0.3699    1.4014   -2.9612 C   0  0  0  0  0  0  0  0  0  0  0  0
   -1.8602    0.8980    0.5749 C   0  0  0  0  0  0  0  0  0  0  0  0
   -1.2465    1.4606    1.6797 C   0  0  0  0  0  0  0  0  0  0  0  0
   -1.9005    1.9985    2.7291 N   0  0  0  0  0  0  0  0  0  0  0  0
   -3.2361    1.9598    2.6552 C   0  0  0  0  0  0  0  0  0  0  0  0
   -3.9529    1.4447    1.6483 N   0  0  0  0  0  0  0  0  0  0  0  0
   -3.2412    0.9271    0.6250 C   0  0  0  0  0  0  0  0  0  0  0  0
   -1.9578   -0.4934   -1.3782 O   0  0  0  0  0  0  0  0  0  0  0  0
    5.2070   -3.3879    1.4222 H   0  0  0  0  0  0  0  0  0  0  0  0
    4.7369   -1.6992    1.5994 H   0  0  0  0  0  0  0  0  0  0  0  0
    4.8929   -2.4422   -0.0361 H   0  0  0  0  0  0  0  0  0  0  0  0
    3.5288   -0.5622   -0.1692 H   0  0  0  0  0  0  0  0  0  0  0  0
    1.6990    0.8382   -0.8697 H   0  0  0  0  0  0  0  0  0  0  0  0
   -1.1210   -2.0920    0.6054 H   0  0  0  0  0  0  0  0  0  0  0  0
    0.7629   -3.5117    1.2987 H   0  0  0  0  0  0  0  0  0  0  0  0
   -0.1274    2.2796   -0.9305 H   0  0  0  0  0  0  0  0  0  0  0  0
   -2.5697    1.6165   -2.7255 H   0  0  0  0  0  0  0  0  0  0  0  0
   -1.6622    3.1860   -2.6421 H   0  0  0  0  0  0  0  0  0  0  0  0
    0.4425    2.0005   -3.3590 H   0  0  0  0  0  0  0  0  0  0  0  0
   -0.4759    0.4384   -3.4410 H   0  0  0  0  0  0  0  0  0  0  0  0
   -0.1654    1.5104    1.7641 H   0  0  0  0  0  0  0  0  0  0  0  0
   -3.7850    2.3875    3.4856 H   0  0  0  0  0  0  0  0  0  0  0  0
   -3.8430    0.5285   -0.1880 H   0  0  0  0  0  0  0  0  0  0  0  0
   -1.3847   -1.0800   -1.9017 H   0  0  0  0  0  0  0  0  0  0  0  0
  1  2  1  0
  2  3  1  0
  3  4  2  0
  4  5  1  0
  5  6  2  0
  6  7  1  0
  7  8  2  0
  6  9  1  0
  9 10  1  0
 10 11  1  0
 11 12  1  0
  9 13  1  0
 13 14  2  0
 14 15  1  0
 15 16  2  0
 16 17  1  0
 17 18  2  0
  9 19  1  0
  8  3  1  0
 12 10  1  0
 18 13  1  0
  1 20  1  0
  1 21  1  0
  1 22  1  0
  4 23  1  0
  5 24  1  0
  7 25  1  0
  8 26  1  0
 10 27  1  0
 11 28  1  0
 11 29  1  0
 12 30  1  0
 12 31  1  0
 14 32  1  0
 16 33  1  0
 18 34  1  0
 19 35  1  0
M  END
>  <SMILES>  (86) 
COC1=CC=C(C=C1)C(C2CC2)(C3=CN=CN=C3)O

$$$$
anycymidol
     RDKit          3D

 35 37  0  0  0  0  0  0  0  0999 V2000
    5.3399    0.5013    0.6626 C   0  0  0  0  0  0  0  0  0  0  0  0
    4.2948    0.1157    1.5468 O   0  0  0  0  0  0  0  0  0  0  0  0
    3.0440   -0.0048    1.0092 C   0  0  0  0  0  0  0  0  0  0  0  0
    2.0471   -0.3545    1.9202 C   0  0  0  0  0  0  0  0  0  0  0  0
    0.7181   -0.5117    1.5104 C   0  0  0  0  0  0  0  0  0  0  0  0
    0.3519   -0.3217    0.1696 C   0  0  0  0  0  0  0  0  0  0  0  0
    1.3732    0.0265   -0.7393 C   0  0  0  0  0  0  0  0  0  0  0  0
    2.7016    0.1847   -0.3262 C   0  0  0  0  0  0  0  0  0  0  0  0
   -1.0867   -0.4763   -0.3522 C   0  0  0  0  0  0  0  0  0  0  0  0
   -2.0582   -0.9566    0.7220 C   0  0  0  0  0  0  0  0  0  0  0  0
   -3.2965   -1.7573    0.3729 C   0  0  0  0  0  0  0  0  0  0  0  0
   -2.1765   -2.4113    1.1316 C   0  0  0  0  0  0  0  0  0  0  0  0
   -1.6459    0.8052   -0.9368 C   0  0  0  0  0  0  0  0  0  0  0  0
   -1.5044    2.0383   -0.3221 C   0  0  0  0  0  0  0  0  0  0  0  0
   -2.0154    3.1919   -0.8008 N   0  0  0  0  0  0  0  0  0  0  0  0
   -2.7018    3.0897   -1.9474 C   0  0  0  0  0  0  0  0  0  0  0  0
   -2.9199    1.9611   -2.6356 N   0  0  0  0  0  0  0  0  0  0  0  0
   -2.3853    0.8398   -2.1052 C   0  0  0  0  0  0  0  0  0  0  0  0
   -1.0314   -1.4710   -1.3860 O   0  0  0  0  0  0  0  0  0  0  0  0
    5.1482    1.4894    0.2312 H   0  0  0  0  0  0  0  0  0  0  0  0
    5.4915   -0.2498   -0.1197 H   0  0  0  0  0  0  0  0  0  0  0  0
    6.2638    0.5660    1.2453 H   0  0  0  0  0  0  0  0  0  0  0  0
    2.3078   -0.5061    2.9656 H   0  0  0  0  0  0  0  0  0  0  0  0
   -0.0116   -0.7855    2.2680 H   0  0  0  0  0  0  0  0  0  0  0  0
    1.1339    0.1814   -1.7919 H   0  0  0  0  0  0  0  0  0  0  0  0
    3.4388    0.4563   -1.0746 H   0  0  0  0  0  0  0  0  0  0  0  0
   -2.1883   -0.2159    1.5079 H   0  0  0  0  0  0  0  0  0  0  0  0
   -3.4554   -2.0592   -0.6567 H   0  0  0  0  0  0  0  0  0  0  0  0
   -4.2123   -1.5304    0.9075 H   0  0  0  0  0  0  0  0  0  0  0  0
   -1.5910   -3.1620    0.6143 H   0  0  0  0  0  0  0  0  0  0  0  0
   -2.3387   -2.6310    2.1812 H   0  0  0  0  0  0  0  0  0  0  0  0
   -0.9575    2.1487    0.6113 H   0  0  0  0  0  0  0  0  0  0  0  0
   -3.1205    4.0033   -2.3543 H   0  0  0  0  0  0  0  0  0  0  0  0
   -2.5833   -0.0654   -2.6747 H   0  0  0  0  0  0  0  0  0  0  0  0
   -0.3740   -2.1285   -1.1020 H   0  0  0  0  0  0  0  0  0  0  0  0
  1  2  1  0
  2  3  1  0
  3  4  2  0
  4  5  1  0
  5  6  2  0
  6  7  1  0
  7  8  2  0
  6  9  1  0
  9 10  1  0
 10 11  1  0
 11 12  1  0
  9 13  1  0
 13 14  2  0
 14 15  1  0
 15 16  2  0
 16 17  1  0
 17 18  2  0
  9 19  1  0
  8  3  1  0
 12 10  1  0
 18 13  1  0
  1 20  1  0
  1 21  1  0
  1 22  1  0
  4 23  1  0
  5 24  1  0
  7 25  1  0
  8 26  1  0
 10 27  1  0
 11 28  1  0
 11 29  1  0
 12 30  1  0
 12 31  1  0
 14 32  1  0
 16 33  1  0
 18 34  1  0
 19 35  1  0
M  END
>  <SMILES>  (87) 
COC1=CC=C(C=C1)C(C2CC2)(C3=CN=CN=C3)O

$$$$
anycymidol
     RDKit          3D

 35 37  0  0  0  0  0  0  0  0999 V2000
    5.3175    0.9512   -0.1274 C   0  0  0  0  0  0  0  0  0  0  0  0
    4.5551   -0.2493   -0.1409 O   0  0  0  0  0  0  0  0  0  0  0  0
    3.2022   -0.1235    0.0077 C   0  0  0  0  0  0  0  0  0  0  0  0
    2.5036    1.0644    0.2006 C   0  0  0  0  0  0  0  0  0  0  0  0
    1.1105    1.0446    0.3387 C   0  0  0  0  0  0  0  0  0  0  0  0
    0.3783   -0.1602    0.2848 C   0  0  0  0  0  0  0  0  0  0  0  0
    1.1013   -1.3469    0.0930 C   0  0  0  0  0  0  0  0  0  0  0  0
    2.4942   -1.3243   -0.0431 C   0  0  0  0  0  0  0  0  0  0  0  0
   -1.1509   -0.1084    0.4413 C   0  0  0  0  0  0  0  0  0  0  0  0
   -1.7910   -1.4933    0.4670 C   0  0  0  0  0  0  0  0  0  0  0  0
   -3.0895   -1.7549    1.2033 C   0  0  0  0  0  0  0  0  0  0  0  0
   -1.8122   -2.3656    1.7067 C   0  0  0  0  0  0  0  0  0  0  0  0
   -1.8316    0.6915   -0.6512 C   0  0  0  0  0  0  0  0  0  0  0  0
   -1.5055    0.5659   -1.9914 C   0  0  0  0  0  0  0  0  0  0  0  0
   -2.1123    1.2408   -2.9902 N   0  0  0  0  0  0  0  0  0  0  0  0
   -3.0931    2.0735   -2.6144 C   0  0  0  0  0  0  0  0  0  0  0  0
   -3.5116    2.2798   -1.3586 N   0  0  0  0  0  0  0  0  0  0  0  0
   -2.8672    1.5744   -0.4037 C   0  0  0  0  0  0  0  0  0  0  0  0
   -1.4015    0.5266    1.7042 O   0  0  0  0  0  0  0  0  0  0  0  0
    5.2333    1.4608    0.8382 H   0  0  0  0  0  0  0  0  0  0  0  0
    6.3682    0.6814   -0.2708 H   0  0  0  0  0  0  0  0  0  0  0  0
    5.0280    1.6125   -0.9508 H   0  0  0  0  0  0  0  0  0  0  0  0
    3.0066    2.0246    0.2486 H   0  0  0  0  0  0  0  0  0  0  0  0
    0.5892    1.9907    0.4888 H   0  0  0  0  0  0  0  0  0  0  0  0
    0.6081   -2.3143    0.0451 H   0  0  0  0  0  0  0  0  0  0  0  0
    3.0339   -2.2572   -0.1919 H   0  0  0  0  0  0  0  0  0  0  0  0
   -1.6855   -2.0039   -0.4875 H   0  0  0  0  0  0  0  0  0  0  0  0
   -3.5340   -0.9561    1.7870 H   0  0  0  0  0  0  0  0  0  0  0  0
   -3.8161   -2.4063    0.7303 H   0  0  0  0  0  0  0  0  0  0  0  0
   -1.6783   -3.4341    1.5772 H   0  0  0  0  0  0  0  0  0  0  0  0
   -1.4058   -1.9845    2.6359 H   0  0  0  0  0  0  0  0  0  0  0  0
   -0.7182   -0.1062   -2.3243 H   0  0  0  0  0  0  0  0  0  0  0  0
   -3.5948    2.6295   -3.3983 H   0  0  0  0  0  0  0  0  0  0  0  0
   -3.2299    1.7499    0.6064 H   0  0  0  0  0  0  0  0  0  0  0  0
   -0.7010    0.2269    2.3081 H   0  0  0  0  0  0  0  0  0  0  0  0
  1  2  1  0
  2  3  1  0
  3  4  2  0
  4  5  1  0
  5  6  2  0
  6  7  1  0
  7  8  2  0
  6  9  1  0
  9 10  1  0
 10 11  1  0
 11 12  1  0
  9 13  1  0
 13 14  2  0
 14 15  1  0
 15 16  2  0
 16 17  1  0
 17 18  2  0
  9 19  1  0
  8  3  1  0
 12 10  1  0
 18 13  1  0
  1 20  1  0
  1 21  1  0
  1 22  1  0
  4 23  1  0
  5 24  1  0
  7 25  1  0
  8 26  1  0
 10 27  1  0
 11 28  1  0
 11 29  1  0
 12 30  1  0
 12 31  1  0
 14 32  1  0
 16 33  1  0
 18 34  1  0
 19 35  1  0
M  END
>  <SMILES>  (88) 
COC1=CC=C(C=C1)C(C2CC2)(C3=CN=CN=C3)O

$$$$
anycymidol
     RDKit          3D

 35 37  0  0  0  0  0  0  0  0999 V2000
    5.3563   -0.4586    0.3472 C   0  0  0  0  0  0  0  0  0  0  0  0
    4.4082   -1.3740   -0.1866 O   0  0  0  0  0  0  0  0  0  0  0  0
    3.1320   -0.9153   -0.3567 C   0  0  0  0  0  0  0  0  0  0  0  0
    2.6754    0.3697   -0.0727 C   0  0  0  0  0  0  0  0  0  0  0  0
    1.3339    0.7113   -0.2955 C   0  0  0  0  0  0  0  0  0  0  0  0
    0.4205   -0.2210   -0.8182 C   0  0  0  0  0  0  0  0  0  0  0  0
    0.8971   -1.5195   -1.0818 C   0  0  0  0  0  0  0  0  0  0  0  0
    2.2348   -1.8566   -0.8591 C   0  0  0  0  0  0  0  0  0  0  0  0
   -1.0680    0.1042   -1.0541 C   0  0  0  0  0  0  0  0  0  0  0  0
   -1.2889    1.6049   -1.2329 C   0  0  0  0  0  0  0  0  0  0  0  0
   -1.7462    2.5606   -0.1483 C   0  0  0  0  0  0  0  0  0  0  0  0
   -2.6699    2.2273   -1.2868 C   0  0  0  0  0  0  0  0  0  0  0  0
   -1.9620   -0.5200   -0.0027 C   0  0  0  0  0  0  0  0  0  0  0  0
   -3.1700   -1.1246   -0.3047 C   0  0  0  0  0  0  0  0  0  0  0  0
   -4.0008   -1.6739    0.6080 N   0  0  0  0  0  0  0  0  0  0  0  0
   -3.5872   -1.6105    1.8802 C   0  0  0  0  0  0  0  0  0  0  0  0
   -2.4454   -1.0558    2.3086 N   0  0  0  0  0  0  0  0  0  0  0  0
   -1.6577   -0.5261    1.3485 C   0  0  0  0  0  0  0  0  0  0  0  0
   -1.4152   -0.4608   -2.3297 O   0  0  0  0  0  0  0  0  0  0  0  0
    5.4963    0.3982   -0.3202 H   0  0  0  0  0  0  0  0  0  0  0  0
    5.0693   -0.1343    1.3529 H   0  0  0  0  0  0  0  0  0  0  0  0
    6.3157   -0.9789    0.4264 H   0  0  0  0  0  0  0  0  0  0  0  0
    3.3345    1.1328    0.3285 H   0  0  0  0  0  0  0  0  0  0  0  0
    1.0209    1.7220   -0.0428 H   0  0  0  0  0  0  0  0  0  0  0  0
    0.2212   -2.2872   -1.4579 H   0  0  0  0  0  0  0  0  0  0  0  0
    2.5775   -2.8665   -1.0730 H   0  0  0  0  0  0  0  0  0  0  0  0
   -0.5947    2.0023   -1.9721 H   0  0  0  0  0  0  0  0  0  0  0  0
   -1.3078    3.5531   -0.1308 H   0  0  0  0  0  0  0  0  0  0  0  0
   -2.0196    2.1965    0.8342 H   0  0  0  0  0  0  0  0  0  0  0  0
   -3.5439    1.6246   -1.0707 H   0  0  0  0  0  0  0  0  0  0  0  0
   -2.8503    2.9905   -2.0366 H   0  0  0  0  0  0  0  0  0  0  0  0
   -3.5283   -1.1861   -1.3300 H   0  0  0  0  0  0  0  0  0  0  0  0
   -4.2358   -2.0468    2.6315 H   0  0  0  0  0  0  0  0  0  0  0  0
   -0.7397   -0.0843    1.7273 H   0  0  0  0  0  0  0  0  0  0  0  0
   -0.6621   -0.2974   -2.9228 H   0  0  0  0  0  0  0  0  0  0  0  0
  1  2  1  0
  2  3  1  0
  3  4  2  0
  4  5  1  0
  5  6  2  0
  6  7  1  0
  7  8  2  0
  6  9  1  0
  9 10  1  0
 10 11  1  0
 11 12  1  0
  9 13  1  0
 13 14  2  0
 14 15  1  0
 15 16  2  0
 16 17  1  0
 17 18  2  0
  9 19  1  0
  8  3  1  0
 12 10  1  0
 18 13  1  0
  1 20  1  0
  1 21  1  0
  1 22  1  0
  4 23  1  0
  5 24  1  0
  7 25  1  0
  8 26  1  0
 10 27  1  0
 11 28  1  0
 11 29  1  0
 12 30  1  0
 12 31  1  0
 14 32  1  0
 16 33  1  0
 18 34  1  0
 19 35  1  0
M  END
>  <SMILES>  (89) 
COC1=CC=C(C=C1)C(C2CC2)(C3=CN=CN=C3)O

$$$$
anycymidol
     RDKit          3D

 35 37  0  0  0  0  0  0  0  0999 V2000
    5.2105    1.5696   -0.5428 C   0  0  0  0  0  0  0  0  0  0  0  0
    4.5790    0.3945   -0.0499 O   0  0  0  0  0  0  0  0  0  0  0  0
    3.2308    0.2881   -0.2484 C   0  0  0  0  0  0  0  0  0  0  0  0
    2.6518   -0.8662    0.2793 C   0  0  0  0  0  0  0  0  0  0  0  0
    1.2794   -1.1062    0.1513 C   0  0  0  0  0  0  0  0  0  0  0  0
    0.4498   -0.1968   -0.5242 C   0  0  0  0  0  0  0  0  0  0  0  0
    1.0483    0.9715   -1.0385 C   0  0  0  0  0  0  0  0  0  0  0  0
    2.4218    1.2098   -0.9069 C   0  0  0  0  0  0  0  0  0  0  0  0
   -1.0713   -0.3981   -0.6708 C   0  0  0  0  0  0  0  0  0  0  0  0
   -1.4568   -1.8699   -0.5413 C   0  0  0  0  0  0  0  0  0  0  0  0
   -1.9722   -2.5344    0.7202 C   0  0  0  0  0  0  0  0  0  0  0  0
   -2.8969   -2.3334   -0.4481 C   0  0  0  0  0  0  0  0  0  0  0  0
   -1.8578    0.5188    0.2431 C   0  0  0  0  0  0  0  0  0  0  0  0
   -1.5093    0.7593    1.5618 C   0  0  0  0  0  0  0  0  0  0  0  0
   -2.2014    1.5567    2.4033 N   0  0  0  0  0  0  0  0  0  0  0  0
   -3.2903    2.1400    1.8845 C   0  0  0  0  0  0  0  0  0  0  0  0
   -3.7371    1.9949    0.6303 N   0  0  0  0  0  0  0  0  0  0  0  0
   -3.0026    1.1835   -0.1615 C   0  0  0  0  0  0  0  0  0  0  0  0
   -1.3968   -0.0615   -2.0304 O   0  0  0  0  0  0  0  0  0  0  0  0
    6.2749    1.5052   -0.2970 H   0  0  0  0  0  0  0  0  0  0  0  0
    4.8104    2.4662   -0.0578 H   0  0  0  0  0  0  0  0  0  0  0  0
    5.1238    1.6366   -1.6323 H   0  0  0  0  0  0  0  0  0  0  0  0
    3.2764   -1.5864    0.8034 H   0  0  0  0  0  0  0  0  0  0  0  0
    0.8797   -2.0135    0.5979 H   0  0  0  0  0  0  0  0  0  0  0  0
    0.4364    1.7189   -1.5443 H   0  0  0  0  0  0  0  0  0  0  0  0
    2.8216    2.1275   -1.3256 H   0  0  0  0  0  0  0  0  0  0  0  0
   -0.8354   -2.4813   -1.1943 H   0  0  0  0  0  0  0  0  0  0  0  0
   -2.1682   -1.9545    1.6134 H   0  0  0  0  0  0  0  0  0  0  0  0
   -1.6398   -3.5458    0.9307 H   0  0  0  0  0  0  0  0  0  0  0  0
   -3.1846   -3.2057   -1.0256 H   0  0  0  0  0  0  0  0  0  0  0  0
   -3.6938   -1.6068   -0.3442 H   0  0  0  0  0  0  0  0  0  0  0  0
   -0.6328    0.3000    2.0119 H   0  0  0  0  0  0  0  0  0  0  0  0
   -3.8622    2.7875    2.5395 H   0  0  0  0  0  0  0  0  0  0  0  0
   -3.3865    1.0789   -1.1739 H   0  0  0  0  0  0  0  0  0  0  0  0
   -0.6989   -0.4471   -2.5870 H   0  0  0  0  0  0  0  0  0  0  0  0
  1  2  1  0
  2  3  1  0
  3  4  2  0
  4  5  1  0
  5  6  2  0
  6  7  1  0
  7  8  2  0
  6  9  1  0
  9 10  1  0
 10 11  1  0
 11 12  1  0
  9 13  1  0
 13 14  2  0
 14 15  1  0
 15 16  2  0
 16 17  1  0
 17 18  2  0
  9 19  1  0
  8  3  1  0
 12 10  1  0
 18 13  1  0
  1 20  1  0
  1 21  1  0
  1 22  1  0
  4 23  1  0
  5 24  1  0
  7 25  1  0
  8 26  1  0
 10 27  1  0
 11 28  1  0
 11 29  1  0
 12 30  1  0
 12 31  1  0
 14 32  1  0
 16 33  1  0
 18 34  1  0
 19 35  1  0
M  END
>  <SMILES>  (90) 
COC1=CC=C(C=C1)C(C2CC2)(C3=CN=CN=C3)O

$$$$
anycymidol
     RDKit          3D

 35 37  0  0  0  0  0  0  0  0999 V2000
    5.3777   -0.0230   -0.4450 C   0  0  0  0  0  0  0  0  0  0  0  0
    4.4446    1.0269   -0.2240 O   0  0  0  0  0  0  0  0  0  0  0  0
    3.1191    0.6967   -0.2655 C   0  0  0  0  0  0  0  0  0  0  0  0
    2.5939   -0.5664   -0.5278 C   0  0  0  0  0  0  0  0  0  0  0  0
    1.2063   -0.7710   -0.5415 C   0  0  0  0  0  0  0  0  0  0  0  0
    0.3115    0.2827   -0.2925 C   0  0  0  0  0  0  0  0  0  0  0  0
    0.8625    1.5530   -0.0313 C   0  0  0  0  0  0  0  0  0  0  0  0
    2.2453    1.7538   -0.0183 C   0  0  0  0  0  0  0  0  0  0  0  0
   -1.2186    0.1224   -0.2930 C   0  0  0  0  0  0  0  0  0  0  0  0
   -1.6656   -1.2758   -0.7109 C   0  0  0  0  0  0  0  0  0  0  0  0
   -3.0007   -1.5150   -1.3870 C   0  0  0  0  0  0  0  0  0  0  0  0
   -1.7280   -1.7177   -2.1596 C   0  0  0  0  0  0  0  0  0  0  0  0
   -1.8477    0.4214    1.0529 C   0  0  0  0  0  0  0  0  0  0  0  0
   -3.0231    1.1374    1.1914 C   0  0  0  0  0  0  0  0  0  0  0  0
   -3.6250    1.3929    2.3733 N   0  0  0  0  0  0  0  0  0  0  0  0
   -3.0126    0.8952    3.4559 C   0  0  0  0  0  0  0  0  0  0  0  0
   -1.8809    0.1772    3.4594 N   0  0  0  0  0  0  0  0  0  0  0  0
   -1.3261   -0.0427    2.2490 C   0  0  0  0  0  0  0  0  0  0  0  0
   -1.7215    1.0601   -1.2567 O   0  0  0  0  0  0  0  0  0  0  0  0
    5.2846   -0.8017    0.3193 H   0  0  0  0  0  0  0  0  0  0  0  0
    5.2697   -0.4411   -1.4512 H   0  0  0  0  0  0  0  0  0  0  0  0
    6.3833    0.4014   -0.3671 H   0  0  0  0  0  0  0  0  0  0  0  0
    3.2349   -1.4190   -0.7279 H   0  0  0  0  0  0  0  0  0  0  0  0
    0.8510   -1.7765   -0.7534 H   0  0  0  0  0  0  0  0  0  0  0  0
    0.2102    2.4032    0.1682 H   0  0  0  0  0  0  0  0  0  0  0  0
    2.6430    2.7447    0.1891 H   0  0  0  0  0  0  0  0  0  0  0  0
   -1.3720   -2.0278    0.0179 H   0  0  0  0  0  0  0  0  0  0  0  0
   -3.5660   -2.3924   -1.0930 H   0  0  0  0  0  0  0  0  0  0  0  0
   -3.6203   -0.6630   -1.6452 H   0  0  0  0  0  0  0  0  0  0  0  0
   -1.4363   -2.7359   -2.3928 H   0  0  0  0  0  0  0  0  0  0  0  0
   -1.4995   -1.0070   -2.9449 H   0  0  0  0  0  0  0  0  0  0  0  0
   -3.5423    1.5424    0.3258 H   0  0  0  0  0  0  0  0  0  0  0  0
   -3.4760    1.0895    4.4167 H   0  0  0  0  0  0  0  0  0  0  0  0
   -0.4121   -0.6307    2.2807 H   0  0  0  0  0  0  0  0  0  0  0  0
   -1.0633    1.1059   -1.9707 H   0  0  0  0  0  0  0  0  0  0  0  0
  1  2  1  0
  2  3  1  0
  3  4  2  0
  4  5  1  0
  5  6  2  0
  6  7  1  0
  7  8  2  0
  6  9  1  0
  9 10  1  0
 10 11  1  0
 11 12  1  0
  9 13  1  0
 13 14  2  0
 14 15  1  0
 15 16  2  0
 16 17  1  0
 17 18  2  0
  9 19  1  0
  8  3  1  0
 12 10  1  0
 18 13  1  0
  1 20  1  0
  1 21  1  0
  1 22  1  0
  4 23  1  0
  5 24  1  0
  7 25  1  0
  8 26  1  0
 10 27  1  0
 11 28  1  0
 11 29  1  0
 12 30  1  0
 12 31  1  0
 14 32  1  0
 16 33  1  0
 18 34  1  0
 19 35  1  0
M  END
>  <SMILES>  (91) 
COC1=CC=C(C=C1)C(C2CC2)(C3=CN=CN=C3)O

$$$$
anycymidol
     RDKit          3D

 35 37  0  0  0  0  0  0  0  0999 V2000
    5.2329    0.9477    0.9765 C   0  0  0  0  0  0  0  0  0  0  0  0
    4.3564    1.3661   -0.0620 O   0  0  0  0  0  0  0  0  0  0  0  0
    3.0891    0.8547   -0.0467 C   0  0  0  0  0  0  0  0  0  0  0  0
    2.5810   -0.0568    0.8759 C   0  0  0  0  0  0  0  0  0  0  0  0
    1.2554   -0.5045    0.7773 C   0  0  0  0  0  0  0  0  0  0  0  0
    0.4067   -0.0508   -0.2458 C   0  0  0  0  0  0  0  0  0  0  0  0
    0.9402    0.8692   -1.1702 C   0  0  0  0  0  0  0  0  0  0  0  0
    2.2611    1.3136   -1.0694 C   0  0  0  0  0  0  0  0  0  0  0  0
   -1.0548   -0.5034   -0.4072 C   0  0  0  0  0  0  0  0  0  0  0  0
   -1.4503   -1.5889    0.5902 C   0  0  0  0  0  0  0  0  0  0  0  0
   -1.0912   -3.0490    0.3979 C   0  0  0  0  0  0  0  0  0  0  0  0
   -2.5227   -2.6107    0.2698 C   0  0  0  0  0  0  0  0  0  0  0  0
   -2.0476    0.6327   -0.2656 C   0  0  0  0  0  0  0  0  0  0  0  0
   -3.1524    0.7729   -1.0860 C   0  0  0  0  0  0  0  0  0  0  0  0
   -4.0717    1.7551   -0.9652 N   0  0  0  0  0  0  0  0  0  0  0  0
   -3.8641    2.6246    0.0328 C   0  0  0  0  0  0  0  0  0  0  0  0
   -2.8450    2.5951    0.9028 N   0  0  0  0  0  0  0  0  0  0  0  0
   -1.9590    1.5921    0.7293 C   0  0  0  0  0  0  0  0  0  0  0  0
   -1.1635   -1.0498   -1.7304 O   0  0  0  0  0  0  0  0  0  0  0  0
    5.4129   -0.1314    0.9296 H   0  0  0  0  0  0  0  0  0  0  0  0
    4.8504    1.2429    1.9592 H   0  0  0  0  0  0  0  0  0  0  0  0
    6.1925    1.4520    0.8276 H   0  0  0  0  0  0  0  0  0  0  0  0
    3.1886   -0.4434    1.6878 H   0  0  0  0  0  0  0  0  0  0  0  0
    0.9113   -1.2171    1.5231 H   0  0  0  0  0  0  0  0  0  0  0  0
    0.3219    1.2515   -1.9824 H   0  0  0  0  0  0  0  0  0  0  0  0
    2.6457    2.0264   -1.7954 H   0  0  0  0  0  0  0  0  0  0  0  0
   -1.4534   -1.2161    1.6118 H   0  0  0  0  0  0  0  0  0  0  0  0
   -0.8165   -3.6241    1.2754 H   0  0  0  0  0  0  0  0  0  0  0  0
   -0.5788   -3.3584   -0.5053 H   0  0  0  0  0  0  0  0  0  0  0  0
   -3.2138   -2.8826    1.0600 H   0  0  0  0  0  0  0  0  0  0  0  0
   -2.9676   -2.6146   -0.7194 H   0  0  0  0  0  0  0  0  0  0  0  0
   -3.3459    0.0735   -1.8962 H   0  0  0  0  0  0  0  0  0  0  0  0
   -4.5878    3.4236    0.1482 H   0  0  0  0  0  0  0  0  0  0  0  0
   -1.1454    1.5897    1.4507 H   0  0  0  0  0  0  0  0  0  0  0  0
   -0.3144   -1.4819   -1.9240 H   0  0  0  0  0  0  0  0  0  0  0  0
  1  2  1  0
  2  3  1  0
  3  4  2  0
  4  5  1  0
  5  6  2  0
  6  7  1  0
  7  8  2  0
  6  9  1  0
  9 10  1  0
 10 11  1  0
 11 12  1  0
  9 13  1  0
 13 14  2  0
 14 15  1  0
 15 16  2  0
 16 17  1  0
 17 18  2  0
  9 19  1  0
  8  3  1  0
 12 10  1  0
 18 13  1  0
  1 20  1  0
  1 21  1  0
  1 22  1  0
  4 23  1  0
  5 24  1  0
  7 25  1  0
  8 26  1  0
 10 27  1  0
 11 28  1  0
 11 29  1  0
 12 30  1  0
 12 31  1  0
 14 32  1  0
 16 33  1  0
 18 34  1  0
 19 35  1  0
M  END
>  <SMILES>  (92) 
COC1=CC=C(C=C1)C(C2CC2)(C3=CN=CN=C3)O

$$$$
anycymidol
     RDKit          3D

 35 37  0  0  0  0  0  0  0  0999 V2000
    5.1922   -0.9513    1.3638 C   0  0  0  0  0  0  0  0  0  0  0  0
    3.9647   -0.7889    2.0630 O   0  0  0  0  0  0  0  0  0  0  0  0
    2.8478   -0.5693    1.3056 C   0  0  0  0  0  0  0  0  0  0  0  0
    2.7955   -0.5141   -0.0850 C   0  0  0  0  0  0  0  0  0  0  0  0
    1.5775   -0.2811   -0.7368 C   0  0  0  0  0  0  0  0  0  0  0  0
    0.3855   -0.0905   -0.0160 C   0  0  0  0  0  0  0  0  0  0  0  0
    0.4548   -0.1621    1.3872 C   0  0  0  0  0  0  0  0  0  0  0  0
    1.6720   -0.3943    2.0352 C   0  0  0  0  0  0  0  0  0  0  0  0
   -0.9532    0.1433   -0.7345 C   0  0  0  0  0  0  0  0  0  0  0  0
   -1.7028   -1.1865   -0.7452 C   0  0  0  0  0  0  0  0  0  0  0  0
   -2.7618   -1.5308   -1.7743 C   0  0  0  0  0  0  0  0  0  0  0  0
   -1.4365   -2.2385   -1.8022 C   0  0  0  0  0  0  0  0  0  0  0  0
   -1.7623    1.2708   -0.1226 C   0  0  0  0  0  0  0  0  0  0  0  0
   -1.2626    2.5644   -0.0865 C   0  0  0  0  0  0  0  0  0  0  0  0
   -1.9193    3.6229    0.4314 N   0  0  0  0  0  0  0  0  0  0  0  0
   -3.1291    3.3617    0.9417 C   0  0  0  0  0  0  0  0  0  0  0  0
   -3.7242    2.1613    0.9713 N   0  0  0  0  0  0  0  0  0  0  0  0
   -3.0206    1.1412    0.4355 C   0  0  0  0  0  0  0  0  0  0  0  0
   -0.6931    0.5292   -2.0928 O   0  0  0  0  0  0  0  0  0  0  0  0
    5.4432   -0.0522    0.7914 H   0  0  0  0  0  0  0  0  0  0  0  0
    5.1649   -1.8363    0.7195 H   0  0  0  0  0  0  0  0  0  0  0  0
    5.9817   -1.1045    2.1058 H   0  0  0  0  0  0  0  0  0  0  0  0
    3.6803   -0.6501   -0.6977 H   0  0  0  0  0  0  0  0  0  0  0  0
    1.5686   -0.2515   -1.8253 H   0  0  0  0  0  0  0  0  0  0  0  0
   -0.4371   -0.0369    1.9977 H   0  0  0  0  0  0  0  0  0  0  0  0
    1.7027   -0.4395    3.1214 H   0  0  0  0  0  0  0  0  0  0  0  0
   -1.8582   -1.5682    0.2616 H   0  0  0  0  0  0  0  0  0  0  0  0
   -3.6266   -2.0961   -1.4431 H   0  0  0  0  0  0  0  0  0  0  0  0
   -2.9769   -0.8405   -2.5808 H   0  0  0  0  0  0  0  0  0  0  0  0
   -1.4016   -3.2747   -1.4842 H   0  0  0  0  0  0  0  0  0  0  0  0
   -0.7505   -2.0071   -2.6099 H   0  0  0  0  0  0  0  0  0  0  0  0
   -0.2793    2.7969   -0.4922 H   0  0  0  0  0  0  0  0  0  0  0  0
   -3.6759    4.1953    1.3681 H   0  0  0  0  0  0  0  0  0  0  0  0
   -3.5395    0.1882    0.4813 H   0  0  0  0  0  0  0  0  0  0  0  0
   -1.5202    0.8894   -2.4523 H   0  0  0  0  0  0  0  0  0  0  0  0
  1  2  1  0
  2  3  1  0
  3  4  2  0
  4  5  1  0
  5  6  2  0
  6  7  1  0
  7  8  2  0
  6  9  1  0
  9 10  1  0
 10 11  1  0
 11 12  1  0
  9 13  1  0
 13 14  2  0
 14 15  1  0
 15 16  2  0
 16 17  1  0
 17 18  2  0
  9 19  1  0
  8  3  1  0
 12 10  1  0
 18 13  1  0
  1 20  1  0
  1 21  1  0
  1 22  1  0
  4 23  1  0
  5 24  1  0
  7 25  1  0
  8 26  1  0
 10 27  1  0
 11 28  1  0
 11 29  1  0
 12 30  1  0
 12 31  1  0
 14 32  1  0
 16 33  1  0
 18 34  1  0
 19 35  1  0
M  END
>  <SMILES>  (93) 
COC1=CC=C(C=C1)C(C2CC2)(C3=CN=CN=C3)O

$$$$
anycymidol
     RDKit          3D

 35 37  0  0  0  0  0  0  0  0999 V2000
    5.2577   -0.5442    0.1064 C   0  0  0  0  0  0  0  0  0  0  0  0
    4.2411    0.2041    0.7611 O   0  0  0  0  0  0  0  0  0  0  0  0
    2.9504   -0.0527    0.3920 C   0  0  0  0  0  0  0  0  0  0  0  0
    1.9866    0.6705    1.0922 C   0  0  0  0  0  0  0  0  0  0  0  0
    0.6253    0.5060    0.8152 C   0  0  0  0  0  0  0  0  0  0  0  0
    0.1862   -0.3882   -0.1783 C   0  0  0  0  0  0  0  0  0  0  0  0
    1.1749   -1.1113   -0.8724 C   0  0  0  0  0  0  0  0  0  0  0  0
    2.5388   -0.9463   -0.5925 C   0  0  0  0  0  0  0  0  0  0  0  0
   -1.3090   -0.5647   -0.4921 C   0  0  0  0  0  0  0  0  0  0  0  0
   -1.8842    0.5221   -1.4002 C   0  0  0  0  0  0  0  0  0  0  0  0
   -1.4244    1.9647   -1.4542 C   0  0  0  0  0  0  0  0  0  0  0  0
   -1.1383    1.0479   -2.6110 C   0  0  0  0  0  0  0  0  0  0  0  0
   -2.1392   -0.7262    0.7687 C   0  0  0  0  0  0  0  0  0  0  0  0
   -2.1639   -1.9162    1.4782 C   0  0  0  0  0  0  0  0  0  0  0  0
   -2.8528   -2.1105    2.6237 N   0  0  0  0  0  0  0  0  0  0  0  0
   -3.5387   -1.0521    3.0732 C   0  0  0  0  0  0  0  0  0  0  0  0
   -3.5895    0.1556    2.4939 N   0  0  0  0  0  0  0  0  0  0  0  0
   -2.8808    0.2864    1.3523 C   0  0  0  0  0  0  0  0  0  0  0  0
   -1.4820   -1.7950   -1.2166 O   0  0  0  0  0  0  0  0  0  0  0  0
    5.1408   -1.6170    0.2921 H   0  0  0  0  0  0  0  0  0  0  0  0
    6.2209   -0.2370    0.5249 H   0  0  0  0  0  0  0  0  0  0  0  0
    5.2769   -0.3279   -0.9669 H   0  0  0  0  0  0  0  0  0  0  0  0
    2.2964    1.3687    1.8666 H   0  0  0  0  0  0  0  0  0  0  0  0
   -0.0847    1.0941    1.3927 H   0  0  0  0  0  0  0  0  0  0  0  0
    0.8983   -1.8279   -1.6428 H   0  0  0  0  0  0  0  0  0  0  0  0
    3.2493   -1.5359   -1.1622 H   0  0  0  0  0  0  0  0  0  0  0  0
   -2.9478    0.3476   -1.5631 H   0  0  0  0  0  0  0  0  0  0  0  0
   -2.1803    2.7312   -1.5932 H   0  0  0  0  0  0  0  0  0  0  0  0
   -0.5790    2.3011   -0.8675 H   0  0  0  0  0  0  0  0  0  0  0  0
   -0.1048    0.7665   -2.7774 H   0  0  0  0  0  0  0  0  0  0  0  0
   -1.6995    1.2019   -3.5267 H   0  0  0  0  0  0  0  0  0  0  0  0
   -1.6058   -2.7846    1.1343 H   0  0  0  0  0  0  0  0  0  0  0  0
   -4.1020   -1.1835    3.9902 H   0  0  0  0  0  0  0  0  0  0  0  0
   -2.9325    1.2815    0.9197 H   0  0  0  0  0  0  0  0  0  0  0  0
   -1.4045   -1.5795   -2.1604 H   0  0  0  0  0  0  0  0  0  0  0  0
  1  2  1  0
  2  3  1  0
  3  4  2  0
  4  5  1  0
  5  6  2  0
  6  7  1  0
  7  8  2  0
  6  9  1  0
  9 10  1  0
 10 11  1  0
 11 12  1  0
  9 13  1  0
 13 14  2  0
 14 15  1  0
 15 16  2  0
 16 17  1  0
 17 18  2  0
  9 19  1  0
  8  3  1  0
 12 10  1  0
 18 13  1  0
  1 20  1  0
  1 21  1  0
  1 22  1  0
  4 23  1  0
  5 24  1  0
  7 25  1  0
  8 26  1  0
 10 27  1  0
 11 28  1  0
 11 29  1  0
 12 30  1  0
 12 31  1  0
 14 32  1  0
 16 33  1  0
 18 34  1  0
 19 35  1  0
M  END
>  <SMILES>  (94) 
COC1=CC=C(C=C1)C(C2CC2)(C3=CN=CN=C3)O

$$$$
