beta-pinene
     RDKit          3D

 26 27  0  0  0  0  0  0  0  0999 V2000
   -1.3701    0.7138   -1.2051 C   0  0  0  0  0  0  0  0  0  0  0  0
   -1.0601   -0.0132    0.1097 C   0  0  0  0  0  0  0  0  0  0  0  0
   -0.2231   -1.3599    0.0125 C   0  0  0  0  0  0  0  0  0  0  0  0
    0.9087   -1.3593   -1.0325 C   0  0  0  0  0  0  0  0  0  0  0  0
    1.9288   -0.2295   -0.7640 C   0  0  0  0  0  0  0  0  0  0  0  0
    1.3540    0.8792    0.0888 C   0  0  0  0  0  0  0  0  0  0  0  0
    1.7762    2.1500    0.0650 C   0  0  0  0  0  0  0  0  0  0  0  0
    0.1879    0.4891    0.9547 C   0  0  0  0  0  0  0  0  0  0  0  0
    0.3282   -1.0017    1.4277 C   0  0  0  0  0  0  0  0  0  0  0  0
   -2.3749   -0.1219    0.9057 C   0  0  0  0  0  0  0  0  0  0  0  0
   -1.7773    1.7115   -1.0064 H   0  0  0  0  0  0  0  0  0  0  0  0
   -2.1129    0.1563   -1.7866 H   0  0  0  0  0  0  0  0  0  0  0  0
   -0.4965    0.8477   -1.8477 H   0  0  0  0  0  0  0  0  0  0  0  0
   -0.8257   -2.2728   -0.0371 H   0  0  0  0  0  0  0  0  0  0  0  0
    1.4318   -2.3230   -1.0147 H   0  0  0  0  0  0  0  0  0  0  0  0
    0.4867   -1.2593   -2.0390 H   0  0  0  0  0  0  0  0  0  0  0  0
    2.7860   -0.6566   -0.2276 H   0  0  0  0  0  0  0  0  0  0  0  0
    2.3130    0.1531   -1.7165 H   0  0  0  0  0  0  0  0  0  0  0  0
    2.6006    2.4549   -0.5724 H   0  0  0  0  0  0  0  0  0  0  0  0
    1.3141    2.9184    0.6771 H   0  0  0  0  0  0  0  0  0  0  0  0
   -0.0332    1.2014    1.7563 H   0  0  0  0  0  0  0  0  0  0  0  0
   -0.3113   -1.2876    2.2696 H   0  0  0  0  0  0  0  0  0  0  0  0
    1.3360   -1.3567    1.6688 H   0  0  0  0  0  0  0  0  0  0  0  0
   -2.7803    0.8748    1.1132 H   0  0  0  0  0  0  0  0  0  0  0  0
   -2.2621   -0.6290    1.8672 H   0  0  0  0  0  0  0  0  0  0  0  0
   -3.1245   -0.6795    0.3332 H   0  0  0  0  0  0  0  0  0  0  0  0
  1  2  1  0
  2  3  1  0
  3  4  1  0
  4  5  1  0
  5  6  1  0
  6  7  2  0
  6  8  1  0
  8  9  1  0
  2 10  1  0
  8  2  1  0
  9  3  1  0
  1 11  1  0
  1 12  1  0
  1 13  1  0
  3 14  1  0
  4 15  1  0
  4 16  1  0
  5 17  1  0
  5 18  1  0
  7 19  1  0
  7 20  1  0
  8 21  1  0
  9 22  1  0
  9 23  1  0
 10 24  1  0
 10 25  1  0
 10 26  1  0
M  END
>  <SMILES>  (1) 
CC1(C2CCC(=C)C1C2)C  

$$$$
beta-pinene
     RDKit          3D

 26 27  0  0  0  0  0  0  0  0999 V2000
   -0.9274    1.7117   -0.2219 C   0  0  0  0  0  0  0  0  0  0  0  0
   -1.0247    0.1807   -0.2310 C   0  0  0  0  0  0  0  0  0  0  0  0
   -0.5993   -0.5797    1.0973 C   0  0  0  0  0  0  0  0  0  0  0  0
    0.6215    0.0069    1.8312 C   0  0  0  0  0  0  0  0  0  0  0  0
    1.8719    0.0321    0.9228 C   0  0  0  0  0  0  0  0  0  0  0  0
    1.5213   -0.0263   -0.5470 C   0  0  0  0  0  0  0  0  0  0  0  0
    2.2857    0.4692   -1.5287 C   0  0  0  0  0  0  0  0  0  0  0  0
    0.1826   -0.6322   -0.8677 C   0  0  0  0  0  0  0  0  0  0  0  0
   -0.1739   -1.7582    0.1671 C   0  0  0  0  0  0  0  0  0  0  0  0
   -2.4147   -0.1967   -0.7784 C   0  0  0  0  0  0  0  0  0  0  0  0
   -1.0585    2.1115   -1.2337 H   0  0  0  0  0  0  0  0  0  0  0  0
    0.0297    2.0871    0.1482 H   0  0  0  0  0  0  0  0  0  0  0  0
   -1.7083    2.1426    0.4146 H   0  0  0  0  0  0  0  0  0  0  0  0
   -1.4229   -0.8003    1.7843 H   0  0  0  0  0  0  0  0  0  0  0  0
    0.8417   -0.5912    2.7237 H   0  0  0  0  0  0  0  0  0  0  0  0
    0.3913    1.0168    2.1894 H   0  0  0  0  0  0  0  0  0  0  0  0
    2.4883   -0.8455    1.1569 H   0  0  0  0  0  0  0  0  0  0  0  0
    2.4790    0.9141    1.1571 H   0  0  0  0  0  0  0  0  0  0  0  0
    3.2439    0.9323   -1.3136 H   0  0  0  0  0  0  0  0  0  0  0  0
    1.9793    0.4276   -2.5694 H   0  0  0  0  0  0  0  0  0  0  0  0
    0.0622   -0.9238   -1.9163 H   0  0  0  0  0  0  0  0  0  0  0  0
    0.6474   -2.3922    0.5184 H   0  0  0  0  0  0  0  0  0  0  0  0
   -0.9801   -2.4345   -0.1365 H   0  0  0  0  0  0  0  0  0  0  0  0
   -2.5869   -1.2749   -0.8256 H   0  0  0  0  0  0  0  0  0  0  0  0
   -3.2034    0.2284   -0.1476 H   0  0  0  0  0  0  0  0  0  0  0  0
   -2.5456    0.1948   -1.7935 H   0  0  0  0  0  0  0  0  0  0  0  0
  1  2  1  0
  2  3  1  0
  3  4  1  0
  4  5  1  0
  5  6  1  0
  6  7  2  0
  6  8  1  0
  8  9  1  0
  2 10  1  0
  8  2  1  0
  9  3  1  0
  1 11  1  0
  1 12  1  0
  1 13  1  0
  3 14  1  0
  4 15  1  0
  4 16  1  0
  5 17  1  0
  5 18  1  0
  7 19  1  0
  7 20  1  0
  8 21  1  0
  9 22  1  0
  9 23  1  0
 10 24  1  0
 10 25  1  0
 10 26  1  0
M  END
>  <SMILES>  (2) 
CC1(C2CCC(=C)C1C2)C  

$$$$
beta-pinene
     RDKit          3D

 26 27  0  0  0  0  0  0  0  0999 V2000
   -1.2437    1.0545    1.0864 C   0  0  0  0  0  0  0  0  0  0  0  0
   -1.0658   -0.0098   -0.0041 C   0  0  0  0  0  0  0  0  0  0  0  0
   -0.2389    0.4073   -1.2947 C   0  0  0  0  0  0  0  0  0  0  0  0
    0.9851    1.3049   -1.0325 C   0  0  0  0  0  0  0  0  0  0  0  0
    1.9887    0.6297   -0.0702 C   0  0  0  0  0  0  0  0  0  0  0  0
    1.3498   -0.4590    0.7625 C   0  0  0  0  0  0  0  0  0  0  0  0
    1.7870   -0.8464    1.9677 C   0  0  0  0  0  0  0  0  0  0  0  0
    0.1038   -1.0688    0.1815 C   0  0  0  0  0  0  0  0  0  0  0  0
    0.1823   -1.0925   -1.3867 C   0  0  0  0  0  0  0  0  0  0  0  0
   -2.4501   -0.6231   -0.2899 C   0  0  0  0  0  0  0  0  0  0  0  0
   -1.9355    1.8355    0.7518 H   0  0  0  0  0  0  0  0  0  0  0  0
   -0.3126    1.5519    1.3684 H   0  0  0  0  0  0  0  0  0  0  0  0
   -1.6561    0.6066    1.9975 H   0  0  0  0  0  0  0  0  0  0  0  0
   -0.8447    0.7746   -2.1296 H   0  0  0  0  0  0  0  0  0  0  0  0
    0.6598    2.2698   -0.6270 H   0  0  0  0  0  0  0  0  0  0  0  0
    1.4933    1.5268   -1.9787 H   0  0  0  0  0  0  0  0  0  0  0  0
    2.4643    1.3909    0.5588 H   0  0  0  0  0  0  0  0  0  0  0  0
    2.7874    0.1714   -0.6678 H   0  0  0  0  0  0  0  0  0  0  0  0
    2.6706   -0.3999    2.4135 H   0  0  0  0  0  0  0  0  0  0  0  0
    1.2788   -1.6155    2.5410 H   0  0  0  0  0  0  0  0  0  0  0  0
   -0.1827   -2.0225    0.6368 H   0  0  0  0  0  0  0  0  0  0  0  0
   -0.5359   -1.7550   -1.8812 H   0  0  0  0  0  0  0  0  0  0  0  0
    1.1592   -1.3038   -1.8348 H   0  0  0  0  0  0  0  0  0  0  0  0
   -3.1496    0.1501   -0.6269 H   0  0  0  0  0  0  0  0  0  0  0  0
   -2.4331   -1.3988   -1.0595 H   0  0  0  0  0  0  0  0  0  0  0  0
   -2.8616   -1.0791    0.6176 H   0  0  0  0  0  0  0  0  0  0  0  0
  1  2  1  0
  2  3  1  0
  3  4  1  0
  4  5  1  0
  5  6  1  0
  6  7  2  0
  6  8  1  0
  8  9  1  0
  2 10  1  0
  8  2  1  0
  9  3  1  0
  1 11  1  0
  1 12  1  0
  1 13  1  0
  3 14  1  0
  4 15  1  0
  4 16  1  0
  5 17  1  0
  5 18  1  0
  7 19  1  0
  7 20  1  0
  8 21  1  0
  9 22  1  0
  9 23  1  0
 10 24  1  0
 10 25  1  0
 10 26  1  0
M  END
>  <SMILES>  (3) 
CC1(C2CCC(=C)C1C2)C  

$$$$
beta-pinene
     RDKit          3D

 26 27  0  0  0  0  0  0  0  0999 V2000
   -2.1153    1.2561    0.6505 C   0  0  0  0  0  0  0  0  0  0  0  0
   -0.9399    0.2889    0.4111 C   0  0  0  0  0  0  0  0  0  0  0  0
   -0.8238   -0.2696   -1.0714 C   0  0  0  0  0  0  0  0  0  0  0  0
    0.1272   -1.4679   -1.2524 C   0  0  0  0  0  0  0  0  0  0  0  0
    1.5652   -1.1247   -0.8011 C   0  0  0  0  0  0  0  0  0  0  0  0
    1.6093    0.0533    0.1461 C   0  0  0  0  0  0  0  0  0  0  0  0
    2.5679    0.2559    1.0592 C   0  0  0  0  0  0  0  0  0  0  0  0
    0.4395    0.9945    0.0605 C   0  0  0  0  0  0  0  0  0  0  0  0
   -0.0996    1.0699   -1.4124 C   0  0  0  0  0  0  0  0  0  0  0  0
   -0.9452   -0.7412    1.5480 C   0  0  0  0  0  0  0  0  0  0  0  0
   -3.0651    0.7097    0.6610 H   0  0  0  0  0  0  0  0  0  0  0  0
   -2.2011    2.0352   -0.1110 H   0  0  0  0  0  0  0  0  0  0  0  0
   -2.0049    1.7611    1.6166 H   0  0  0  0  0  0  0  0  0  0  0  0
   -1.7809   -0.4261   -1.5798 H   0  0  0  0  0  0  0  0  0  0  0  0
    0.1475   -1.7708   -2.3063 H   0  0  0  0  0  0  0  0  0  0  0  0
   -0.2509   -2.3316   -0.6936 H   0  0  0  0  0  0  0  0  0  0  0  0
    2.1547   -0.8644   -1.6897 H   0  0  0  0  0  0  0  0  0  0  0  0
    2.0344   -2.0125   -0.3617 H   0  0  0  0  0  0  0  0  0  0  0  0
    2.5431    1.1038    1.7368 H   0  0  0  0  0  0  0  0  0  0  0  0
    3.4071   -0.4268    1.1519 H   0  0  0  0  0  0  0  0  0  0  0  0
    0.6119    1.9677    0.5319 H   0  0  0  0  0  0  0  0  0  0  0  0
   -0.7559    1.9198   -1.6275 H   0  0  0  0  0  0  0  0  0  0  0  0
    0.6419    1.0386   -2.2180 H   0  0  0  0  0  0  0  0  0  0  0  0
   -0.1415   -1.4778    1.4747 H   0  0  0  0  0  0  0  0  0  0  0  0
   -1.8893   -1.2973    1.5583 H   0  0  0  0  0  0  0  0  0  0  0  0
   -0.8363   -0.2439    2.5183 H   0  0  0  0  0  0  0  0  0  0  0  0
  1  2  1  0
  2  3  1  0
  3  4  1  0
  4  5  1  0
  5  6  1  0
  6  7  2  0
  6  8  1  0
  8  9  1  0
  2 10  1  0
  8  2  1  0
  9  3  1  0
  1 11  1  0
  1 12  1  0
  1 13  1  0
  3 14  1  0
  4 15  1  0
  4 16  1  0
  5 17  1  0
  5 18  1  0
  7 19  1  0
  7 20  1  0
  8 21  1  0
  9 22  1  0
  9 23  1  0
 10 24  1  0
 10 25  1  0
 10 26  1  0
M  END
>  <SMILES>  (4) 
CC1(C2CCC(=C)C1C2)C  

$$$$
